          56
 Energy =  -1933.59499100 a.u.  #Cluster:    1
C          -0.41910900      1.03827500     -0.57327100
C           0.09906600      3.37207100     -1.38727400
C           1.43850900      2.76655500     -1.79868700
C           1.90307900      1.73411400     -0.77175900
C          -1.56286600      0.42184900     -0.08113800
C          -2.57498100      1.40760300     -0.20043800
H          -0.38481800      3.89559800     -2.21459700
H           1.35199500      2.28353900     -2.77788500
H           2.85027300      1.28839800     -1.06422000
H          -1.66515800     -0.57070600      0.32382400
H           0.22672600      4.07959700     -0.56039300
H           2.18247100      3.56362600     -1.88186300
H           2.03149000      2.19329700      0.21650900
N          -2.09730600      2.55564700     -0.71327200
C          -3.94252500      1.27242900      0.15733600
C          -5.10460400      1.12496000      0.46885800
C          -6.51576300      0.96118200      0.85751400
C          -7.36662300      2.12206900      0.32068600
H          -7.34415600      2.13979800     -0.77103100
H          -8.39858300      1.99168300      0.65744300
H          -6.97734100      3.06991000      0.70378700
O          -6.63504000      0.85838800      2.28405600
H          -6.09277500      1.56496500      2.67165200
C          -7.01859200     -0.36760500      0.31970100
S          -7.01557000     -1.79501800      1.33692100
C          -7.75319700     -1.89105500     -1.10069900
C          -7.60093900     -2.70788300     -0.01755600
H          -8.11298700     -2.20615900     -2.07311700
H          -7.81150100     -3.76499300      0.06439000
N          -7.41883000     -0.56671800     -0.90257800
C           1.31287700     -0.68010200     -0.70148600
N           2.60884900     -0.89670300     -0.42840500
C           0.44493300     -1.74403700     -1.00929500
C           3.03858200     -2.16428500     -0.45208000
C           1.00982000     -3.01176700     -0.99341600
H          -0.58649600     -1.59468900     -1.29015200
N           2.29268100     -3.26140100     -0.71111300
H           0.39625300     -3.87843900     -1.23174800
N           0.91077200      0.64626200     -0.68781500
N           4.35682500     -2.43864500     -0.19199700
H           4.56848600     -3.42297800     -0.29100900
C           5.44853000     -1.60404500      0.09519000
C           5.30440400     -0.24655700      0.46616300
C           6.72363600     -2.19075900      0.03592600
C           6.46616200      0.44251500      0.74606400
H           4.33232600      0.21693500      0.52274400
C           7.88664300     -1.46335600      0.33201500
H           6.81335900     -3.23570600     -0.24616800
C           7.72906500     -0.13820300      0.68436400
H           8.86555000     -1.92634000      0.27822600
C           7.96162000      1.93926900      1.47029800
H           8.35264700      2.84908200      1.01215000
H           8.03436900      1.97803600      2.56503900
O           8.69060700      0.80549500      0.98030600
O           6.58551000      1.76828600      1.09255800
N          -0.78984700      2.30285000     -0.94507300
          56
 Energy =  -1933.59481000 a.u.  #Cluster:    2
C           0.40599300     -0.37377400     -0.34023400
C           0.31883000     -2.71850500     -1.27243000
C          -1.08494100     -2.32438700     -1.72460600
C          -1.75725900     -1.42893000     -0.68385600
C           1.40713300      0.39584400      0.23947400
C           2.57318200     -0.40369000      0.13437400
H           0.91726200     -3.11428200     -2.09591400
H          -1.04063700     -1.79105300     -2.68024300
H          -2.75211800     -1.13172600     -1.00523100
H           1.32206100      1.36971100      0.69125600
H           0.27745600     -3.47722300     -0.48290900
H          -1.68162600     -3.22878700     -1.87230100
H          -1.84871300     -1.94647700      0.27932600
N           2.31717800     -1.58688200     -0.45123400
C           3.88273500     -0.06794400      0.57243000
C           4.99217400      0.23772700      0.95227100
C           6.35208600      0.59459100      1.41272900
C           6.66910600     -0.09149500      2.74858700
H           7.69081400      0.15627700      3.04922000
H           5.97084100      0.26731800      3.50911700
H           6.56758300     -1.17733000      2.66620200
O           6.45849000      1.99961100      1.61303000
H           6.80770100      2.35972700      0.77376700
C           7.33902400      0.19147100      0.31919800
S           7.78571900     -1.45587500     -0.05053900
C           8.70038800      0.50315300     -1.40098200
C           8.77853200     -0.85697900     -1.34542100
H           9.22368000      1.13044000     -2.11221300
H           9.35229900     -1.52949100     -1.96727600
N           7.88062500      1.08707300     -0.45646500
C          -1.57392200      1.04611800     -0.52470800
N          -2.90259000      1.04445600     -0.33442100
C          -0.87190500      2.24454500     -0.75222100
C          -3.52935900      2.22683200     -0.36342500
C          -1.63463500      3.40395400     -0.75185400
H           0.18612600      2.27104200     -0.96394700
N          -2.95653000      3.43639100     -0.55267300
H          -1.15562700      4.36438200     -0.93233600
N          -0.96384500     -0.19799000     -0.51049700
N          -4.88846100      2.27881600     -0.18642900
H          -5.24951800      3.21900200     -0.28223600
C          -5.84603700      1.27277900      0.01782900
C          -5.50652300     -0.05362000      0.37393700
C          -7.19353600      1.64872600     -0.11138200
C          -6.55603100     -0.92730700      0.56889700
H          -4.47727200     -0.35631000      0.48255100
C          -8.23899600      0.73638200      0.09867300
H          -7.43441900      2.67278100     -0.38099400
C          -7.89030000     -0.55518900      0.43795700
H          -9.27498800      1.03750600     -0.00879200
C          -7.83006400     -2.66494800      1.16888100
H          -8.04025800     -3.61168800      0.66873700
H          -7.96116600     -2.74761500      2.25570100
O          -8.70240300     -1.64871400      0.65571300
O          -6.47961600     -2.26415700      0.88361200
N           0.99693600     -1.54018600     -0.74348100
          56
 Energy =  -1933.59440300 a.u.  #Cluster:    3
C           0.43514900     -1.03534000     -0.55353500
C          -0.07485600     -3.35867600     -1.40082200
C          -1.41372400     -2.75062400     -1.81053200
C          -1.88460300     -1.73191200     -0.77276500
C           1.57424200     -0.42477600     -0.04368300
C           2.58870900     -1.40764700     -0.16837600
H           0.41352900     -3.87090300     -2.23262900
H          -1.32388700     -2.25509500     -2.78317000
H          -2.83168700     -1.28452100     -1.06302700
H           1.67136400      0.56202300      0.37650300
H          -0.20509800     -4.07716700     -0.58379900
H          -2.15576800     -3.54800500     -1.90702300
H          -2.01532200     -2.20349400      0.20933200
N           2.11631800     -2.54838200     -0.70187400
C           3.95311800     -1.27729200      0.20450400
C           5.11126300     -1.13938100      0.53423900
C           6.52683400     -0.97295500      0.92556000
C           7.41459600     -1.96412800      0.16020600
H           7.29890700     -1.84332600     -0.92051800
H           8.45989100     -1.79911900      0.43495300
H           7.12650800     -2.98342600      0.42999700
O           6.70135700     -1.22568600      2.31652200
H           6.62879800     -0.35454800      2.75418200
C           6.92459400      0.47562700      0.65140200
S           7.18310200      1.14394600     -0.94167500
C           7.37031800      2.58820700      1.15029800
C           7.48520700      2.68862200     -0.20463700
H           7.51214500      3.40168200      1.85125900
H           7.73166600      3.55503100     -0.80195500
N           7.04982400      1.33228400      1.62484600
C          -1.29781700      0.68241600     -0.67785600
N          -2.59628900      0.89604800     -0.41414200
C          -0.42810900      1.74960400     -0.96969000
C          -3.02684300      2.16340100     -0.43170200
C          -0.99455600      3.01648100     -0.95035500
H           0.60618100      1.60312400     -1.24147000
N          -2.28016900      3.26300100     -0.67748200
H          -0.37992100      3.88539600     -1.17756400
N          -0.89470200     -0.64336100     -0.67172200
N          -4.34734000      2.43455800     -0.17953800
H          -4.55970400      3.41918700     -0.27384300
C          -5.43890300      1.59716700      0.09987600
C          -5.29399800      0.23909800      0.46846900
C          -6.71481700      2.18162400      0.03593100
C          -6.45571700     -0.45262700      0.74186000
H          -4.32134700     -0.22280100      0.52834700
C          -7.87782000      1.45148900      0.32529300
H          -6.80515400      3.22701300     -0.24431300
C          -7.71940200      0.12594200      0.67576100
H          -8.85732400      1.91279600      0.26803900
C          -7.95147900     -1.95307800      1.45742100
H          -8.33912100     -2.86316400      0.99698100
H          -8.02839700     -1.99287700      2.55185000
O          -8.68050600     -0.82013700      0.96556500
O          -6.57423500     -1.77931400      1.08517700
N           0.80990800     -2.29376200     -0.94075300
          56
 Energy =  -1933.59366400 a.u.  #Cluster:    4
C          -0.41660700      0.04639500      0.93910700
C          -0.34427800     -2.04068700      2.35822000
C           1.12057900     -1.66500700      2.56536100
C           1.71339800     -1.07553700      1.28572100
C          -1.43748800      0.75065000      0.31309300
C          -2.62404400      0.08645300      0.71487300
H          -0.86290600     -2.20219800      3.30571100
H           1.21392700     -0.93186200      3.37372000
H           2.75322600     -0.79295700      1.42836900
H          -1.35565600      1.59590100     -0.34917300
H          -0.43362000     -2.95303900      1.75799300
H           1.68282700     -2.55718300      2.85437900
H           1.66490800     -1.79794400      0.46124700
N          -2.36298700     -0.96050800      1.51807200
C          -3.95550000      0.42206000      0.35110800
C          -5.08321400      0.72395500      0.02529400
C          -6.45550700      1.08738500     -0.38598000
C          -6.42256500      1.92687500     -1.67138400
H          -5.91207100      1.39284800     -2.47769800
H          -7.44641200      2.15635000     -1.97863700
H          -5.88647400      2.85911600     -1.47561700
O          -7.09750100      1.86469100      0.62024900
H          -7.61328100      1.22899800      1.15500700
C          -7.25281000     -0.20162600     -0.57237700
S          -7.01240500     -1.33143000     -1.88252100
C          -8.72406100     -1.77279600     -0.04562400
C          -8.23977700     -2.34517600     -1.18439100
H          -9.49846500     -2.19300100      0.58435800
H          -8.52728500     -3.27706500     -1.65035100
N          -8.15697900     -0.56099400      0.29374500
C           1.64460300      1.30569300      0.57295900
N           2.93377800      1.15002900      0.23343300
C           1.04629700      2.57911700      0.59856200
C           3.62288700      2.25216500     -0.08659300
C           1.86546100      3.64148600      0.24272500
H           0.02908400      2.74089700      0.92146000
N           3.14833800      3.51767100     -0.11317500
H           1.46908600      4.65498100      0.25362600
N           0.97108800      0.14512100      0.91952700
N           4.94570000      2.14885300     -0.43318300
H           5.36614700      3.05262700     -0.60608200
C           5.80629500      1.04451600     -0.53473600
C           5.34951900     -0.29430000     -0.51566100
C           7.17382100      1.32421000     -0.69543400
C           6.30979800     -1.27496000     -0.65364600
H           4.30291700     -0.52517000     -0.39735900
C           8.12566200      0.30287600     -0.83748400
H           7.50489300      2.35844000     -0.71163200
C           7.66399900     -0.99757800     -0.81140900
H           9.17872300      0.53158100     -0.95687600
C           7.38244300     -3.20377400     -1.01537800
H           7.62539200     -4.03119400     -0.34685700
H           7.32953200     -3.53486000     -2.06078700
O           8.37551100     -2.17695800     -0.88640900
O           6.11818300     -2.63697400     -0.63330000
N          -1.01736900     -0.95628600      1.65153300
          56
 Energy =  -1933.59304300 a.u.  #Cluster:    5
C           0.63762500      1.22618500      0.36803600
C           0.24249600      3.63169300      1.02793200
C          -1.13760400      3.13150400      1.44698700
C          -1.64217300      2.06273300      0.47760000
C           1.75014200      0.51766400     -0.06811000
C           2.81544200      1.45058800      0.00580100
H           0.74209400      4.17550000      1.83257600
H          -1.09850800      2.70892500      2.45675800
H          -2.61976500      1.69171000      0.77408200
H           1.79903000     -0.50216700     -0.41056000
H           0.17098200      4.29442500      0.15831800
H          -1.83477400      3.97382500      1.46243700
H          -1.72235900      2.46302300     -0.54087200
N           2.39714900      2.65288200      0.44037700
C           4.17797200      1.21828300     -0.32164100
C           5.33392000      0.99335900     -0.60845900
C           6.74758000      0.72427600     -0.94574100
C           7.66730100      1.72644000     -0.23444100
H           7.52222600      1.69350300      0.84903500
H           8.70865000      1.49051700     -0.46946700
H           7.43684000      2.73522000     -0.58650300
O           6.96850800      0.85705800     -2.34672100
H           6.86052800     -0.04132700     -2.71680500
C           7.06187500     -0.71629900     -0.54886300
S           7.25323600     -1.26752600      1.09761900
C           7.40362400     -2.88218100     -0.86901600
C           7.48634800     -2.87974300      0.49198600
H           7.51539200     -3.75538200     -1.50006000
H           7.67422800     -3.70713500      1.16156200
N           7.16024600     -1.65331800     -1.44853600
C          -1.18956300     -0.37931700      0.60453900
N          -2.49676900     -0.54359500      0.34766000
C          -0.38184700     -1.46372300      0.99469100
C          -2.99730500     -1.77841000      0.47170400
C          -1.01781200     -2.69454100      1.07879000
H           0.65814900     -1.35259400      1.26135300
N          -2.31406100     -2.89246600      0.81744500
H          -0.45298600     -3.57321800      1.38430800
N          -0.71380400      0.91684400      0.48649800
N          -4.33034400     -1.99749500      0.23456500
H          -4.59326600     -2.95923300      0.40588900
C          -5.37473600     -1.12787700     -0.12002200
C          -6.68393500     -1.66102800     -0.00592500
C          -5.18293400      0.18104500     -0.58459700
C          -7.73316600     -0.84471100     -0.36226400
H          -6.85287100     -2.67141500      0.35144400
C          -6.27799700      0.99253400     -0.93651200
H          -4.17962800      0.56709600     -0.67243800
C          -7.54256800      0.45882600     -0.81593900
H          -6.12269400      2.00318400     -1.29786100
C          -9.74219600      0.10083800     -0.63117000
H         -10.50961400     -0.05769100     -1.39057800
H         -10.17425400      0.48674700      0.30107200
O          -8.76237200      1.02320700     -1.12589400
O          -9.07366900     -1.14421400     -0.36318700
N           1.07446200      2.48852900      0.66751000
