%chk=/home/zxwei/cal/chk/trans.chk
%mem=16GB
%nprocshared=16
#opt=(ts,calcfc,noeigen,maxstep=10)	scrf=(solvent=tetrahydrofuran)	nosymm	UM062X	def2SVP	guess=(mix,always)	fre

Title Card Required

0 1
C           2.93442500      0.55321900      0.26033000
C           1.55275900      0.36150300      0.44113900
C           0.66976500      1.43299400      0.33247200
C           1.15898300      2.73659900      0.06099800
C           2.53851200      2.92199300     -0.07315500
C           3.42005800      1.84834700      0.01604600
H           1.18322500     -0.62157300      0.70580000
H           2.92825700      3.91382000     -0.27211500
H           4.48566500      2.00576900     -0.11161000
C           0.68858100      5.13856700      0.28179100
C          -0.59553500      3.79004100     -1.25553000
C          -0.51879400      6.06191700      0.41580500
H           1.34900100      5.52809300     -0.51107700
H           1.25123000      5.11885800      1.21984900
C          -1.75855900      4.75950000     -1.08991800
H           0.02422900      4.09381300     -2.11496000
H          -0.97437800      2.78402300     -1.44834300
H          -0.19424800      7.09207600      0.58437900
H          -1.13567900      5.73692400      1.26819600
H          -2.32463700      4.84051400     -2.02160900
H          -2.43033100      4.39474300     -0.29636000
N           0.21309900      3.78708300     -0.02025800
O          -1.29849800      6.07027700     -0.77602300
N          -0.70477400      1.31143700      0.58174700
H          -1.14207700      2.15896000      0.93263000
C          -1.57883500      0.33191800      0.19977100
N          -2.84250600      0.52000100      0.61426700
C          -1.22742200     -0.78304200     -0.59463200
C          -3.74414500     -0.40617500      0.25339400
C          -2.25245100     -1.65803900     -0.89483900
H          -0.22771000     -0.93477900     -0.97490600
N          -3.52292900     -1.50606200     -0.47914800
H          -2.05750100     -2.53472000     -1.50850800
N          -5.01707200     -0.13988400      0.71754700
H          -5.09204000      0.71010300      1.26298400
C          -6.22221400     -0.81146000      0.56663100
C          -6.37127900     -2.01334400     -0.14881000
N          -7.24626800     -0.19055200      1.18117200
C          -7.64695300     -2.55337500     -0.20284700
H          -5.51967800     -2.47471300     -0.62470100
C          -8.45591600     -0.75149400      1.10010400
C          -8.72957600     -1.93706000      0.42143600
H          -9.25991000     -0.22340600      1.60802600
H          -9.72854200     -2.35276600      0.38373800
Cl         -7.89565400     -4.05388100     -1.08336800
C           3.82980100     -0.55390000      0.35111700
C           4.59424900     -1.49289900      0.41727800
C           5.53652900     -2.62898400      0.49913100
C           5.68035400     -3.11178900      1.94949000
H           4.71204400     -3.47624100      2.30219500
H           6.40945700     -3.92576900      1.98888200
H           6.00703900     -2.29903100      2.60422500
O           5.06830900     -3.72960300     -0.27421500
H           5.49457100     -3.63776400     -1.14922700
C           6.87323800     -2.17237500     -0.08103100
S           7.95578900     -1.04706000      0.70203000
C           8.47500100     -2.00369900     -1.60301100
C           9.00537500     -1.15239200     -0.67952100
H           8.92710800     -2.25297600     -2.55519500
H           9.93247200     -0.59837600     -0.72127500
N           7.26641000     -2.57366000     -1.25620800
