%chk=/home/zxwei/cal/chk/trans.chk
%mem=16GB
%nprocshared=16
#opt=(ts,calcfc,noeigen,maxstep=10)	scrf=(solvent=tetrahydrofuran)	nosymm	UM062X	def2SVP	guess=(mix,always)	fre

Title Card Required

0 1
C          -3.42706200      1.33724400      0.13393800
C          -2.06324000      1.02831100      0.28720400
C          -1.09748700      2.02876500      0.20972900
C          -1.48380400      3.37671300     -0.00765900
C          -2.84499000      3.67581300     -0.12040800
C          -3.81031100      2.67444000     -0.05658400
H          -1.77403600      0.00886400      0.51029700
H          -3.15544600      4.70226500     -0.27938100
H          -4.86086700      2.92208600     -0.16343500
C           0.33984400      4.34564900     -1.29666600
C          -0.82333600      5.72219000      0.31131000
C           1.57626100      5.21406400     -1.10267400
H          -0.25996600      4.73363400     -2.13612500
H           0.63752000      3.32212000     -1.53506100
C           0.45446600      6.53955000      0.47375900
H          -1.45556400      6.19822200     -0.45691900
H          -1.37953100      5.70486800      1.25324300
H           2.13835500      5.29272100     -2.03699500
H           2.22536000      4.76415500     -0.33443300
H           0.21481600      7.58331800      0.69299400
H           1.04985500      6.12667900      1.30300400
N          -0.45851800      4.35223500     -0.05460800
O           1.22283700      6.54120500     -0.72556800
N           0.26394000      1.79167700      0.44060700
H           0.76973800      2.58713300      0.81982800
C           1.04410400      0.72580600      0.08988300
N           2.30543800      0.78407300      0.54811100
C           0.60835100     -0.34927000     -0.71802000
C           3.11844000     -0.23195500      0.21987800
C           1.54674300     -1.32753600     -0.98014100
H          -0.38635500     -0.39687300     -1.13669100
N           2.81014900     -1.30700100     -0.51811500
H           1.28385100     -2.18170100     -1.60016700
N           4.39467500     -0.09692100      0.72934300
H           4.53726200      0.74264300      1.27745100
C           5.52857200     -0.88995900      0.62278800
C           5.57904200     -2.10263600     -0.08817400
N           6.58788000     -0.37631000      1.27537100
C           6.79358400     -2.77118700     -0.09642000
H           4.70231200     -2.47513300     -0.59541300
C           7.73546300     -1.05902800      1.23793700
C           7.91031300     -2.26797800      0.56798600
H           8.57036300     -0.61535100      1.77584000
H           8.86194300     -2.78430500      0.56634200
Cl          6.91880700     -4.29134500     -0.96927700
C          -4.39797800      0.29406300      0.20130400
C          -5.20488900     -0.60959700      0.25276100
C          -6.16359100     -1.73223300      0.32772900
C          -6.77975300     -1.82712600      1.73110100
H          -7.34700800     -0.91505200      1.93416800
H          -7.45224800     -2.68832800      1.77358800
H          -6.00410600     -1.93356800      2.49470800
O          -7.22975400     -1.55099600     -0.59842000
H          -6.97000300     -2.04565400     -1.40073300
C          -5.41459100     -3.00908200     -0.04827200
S          -4.19374300     -3.76481900      0.94673500
C          -4.80468700     -4.69937100     -1.34490200
C          -3.96783600     -4.95531200     -0.29952200
H          -4.87051400     -5.28866200     -2.25131200
H          -3.25246300     -5.75724000     -0.18391800
N          -5.61749800     -3.59354800     -1.19445500
