%chk=/home/zxwei/cal/chk/trans.chk
%mem=16GB
%nprocshared=16
#opt=(ts,calcfc,noeigen,maxstep=10)	scrf=(solvent=tetrahydrofuran)	nosymm	UM062X	def2SVP	guess=(mix,always)	fre

Title Card Required

0 1
C          -0.01978100      0.84830300     -0.77462300
C          -0.32157500      3.19590900     -1.63610600
C          -1.75277200      2.75053600     -1.92647000
C          -2.25107500      1.79946300     -0.83822500
C           1.06300100      0.14510200     -0.25793100
C           2.17188700      1.00357700     -0.47677400
H          -0.30015100      3.90786000     -0.80454200
H          -2.39839900      3.63224800     -1.96962400
H          -2.22183100      2.28236600      0.14496900
H           1.10011700     -0.83023500      0.20019400
H           0.14971900      3.65904500     -2.50562600
H          -1.80599500      2.24701600     -2.89778400
H          -3.26554700      1.46469300     -1.03799700
N           1.80704800      2.15815100     -1.05919200
C           3.52051900      0.73726400     -0.12685700
C           4.65593800      0.47174900      0.19818300
C           6.03865700      0.20595400      0.63315300
C           6.22169600      0.65345700      2.10060300
H           6.02973200      1.72732100      2.17396800
H           5.53043900      0.11611700      2.75527400
H           7.24985700      0.44612200      2.41199900
O           6.97769300      0.85218200     -0.21384700
C           6.31996200     -1.28047800      0.52270700
S           7.87288900     -1.85162000     -0.02903300
C           6.05933300     -3.47292000      0.73198500
C           7.33802000     -3.47890700      0.25856700
H           5.47464900     -4.34892900      0.98446700
H           7.97725300     -4.32580400      0.05297900
N           5.49179600     -2.22224600      0.88064800
C          -1.92356800     -0.67279800     -0.78594900
N          -3.22682900     -0.75300600     -0.47674800
C          -1.17360400     -1.82452700     -1.09076500
C          -3.78108300     -1.97125300     -0.46600000
C          -1.86147700     -3.02794600     -1.03644000
H          -0.13743000     -1.78560500     -1.39011400
N          -3.15649400     -3.14229600     -0.72165800
H          -1.34265100     -3.95615700     -1.26864300
N          -1.38682800      0.60340800     -0.80957300
N          -5.11410700     -2.10606300     -0.17167500
H          -5.42528400     -3.06568500     -0.24745300
C          -6.10688300     -1.15792700      0.12617800
C          -7.44254000     -1.63181400      0.08271400
C          -5.84012500      0.17213700      0.48121700
C          -8.44145200     -0.73999500      0.40093800
H          -7.66900300     -2.65582900     -0.19480200
C          -6.88531700      1.06277100      0.79071700
H          -4.81712500      0.51154700      0.52125000
C          -8.17653800      0.58371900      0.74572900
H          -6.67273600      2.09194900      1.05858300
C         -10.37202900      0.23042900      0.97624600
H         -11.22101100      0.55171300      0.37071900
H         -10.67348200      0.01970100      2.01036900
O          -9.36405200      1.24985600      0.96746800
O          -9.79815600     -0.95552600      0.39947200
N           0.47131500      2.03408200     -1.24994700
H           6.81740500      1.82422200     -0.11991700
O           6.28260700      3.46848500      0.15661100
H           7.04732700      4.06592900      0.16816400
C           5.33718100      3.96343500     -0.80342800
H           5.76498400      3.99182200     -1.81267800
H           4.48998900      3.27670100     -0.79175500
H           4.99184200      4.96619800     -0.52739800
H           3.55263500     -2.22859900      0.81066700
O           2.66170800     -2.56501400      0.56924400
C           2.72086400     -2.88093500     -0.81306700
H           1.77952500     -3.37102200     -1.08156400
H           2.83556000     -1.98530100     -1.44108700
H           3.54483300     -3.57133100     -1.04474200
H           0.30286500      1.72896400      1.49158300
O          -0.10586100      2.56014200      1.78592400
C           0.94760600      3.49553300      2.00928400
H           1.64046500      3.15528900      2.79186200
H           1.52146500      3.69232300      1.09513200
H           0.48188200      4.42703000      2.34262100
