%chk=/home/zxwei/cal/chk/trans.chk
%mem=16GB
%nprocshared=16
#opt=(ts,calcfc,noeigen,maxstep=10)	scrf=(solvent=tetrahydrofuran)	nosymm	UM062X	def2SVP	guess=(mix,always)	fre

Title Card Required

0 1
C          -3.39784500      1.32012200     -0.25282800
C          -2.25137400      0.67309800     -0.74459900
C          -0.98811800      1.24124800     -0.61447400
C          -0.83159500      2.51860400     -0.00943000
C          -1.98092800      3.13372300      0.51853300
C          -3.23725300      2.55389700      0.40194300
H          -2.34041000     -0.30358600     -1.20879700
H          -1.89239700      4.10284300      0.99523200
H          -4.10751100      3.06448300      0.80104900
C           1.16718000      3.40085800     -1.14148300
C           0.65247500      4.12693600      1.11109600
C           2.64756800      3.57958200     -0.82766800
H           0.77336900      4.32644300     -1.59327900
H           1.03602200      2.58920500     -1.85686700
C           2.15275200      4.27192300      1.35361900
H           0.23617800      5.10181900      0.80386400
H           0.16388900      3.82316200      2.04144600
H           3.19002600      3.89735800     -1.72213100
H           3.06955800      2.62649300     -0.47464100
H           2.34708500      5.08645200      2.05653100
H           2.54394200      3.33257500      1.77324100
N           0.43733600      3.09844200      0.09781600
O           2.84681700      4.59434600      0.15280100
N           0.12980600      0.52357800     -1.10743300
H           0.12210400      0.20899500     -2.07017400
C           1.24645300      0.18485700     -0.39724000
N           2.25433800     -0.33083100     -1.11622200
C           1.34952200      0.35005900      1.00291300
C           3.36590400     -0.67033100     -0.44090400
C           2.54640000     -0.03134700      1.56938200
H           0.53644800      0.74854400      1.59249200
N           3.58269800     -0.54014400      0.87259800
H           2.70206700      0.06857400      2.64121900
N           4.35470600     -1.19894000     -1.24954100
H           4.10553700     -1.25435900     -2.22944800
C           5.63336400     -1.65941400     -0.97370400
C           6.20330100     -1.67990000      0.31254900
N           6.28285300     -2.09058500     -2.07142400
C           7.49464800     -2.17318400      0.41539200
H           5.64272300     -1.32301300      1.16282900
C           7.52525400     -2.55713300     -1.91909300
C           8.19569900     -2.62769300     -0.69985700
H           8.02001900     -2.89691100     -2.82634400
H           9.20431200     -3.01434600     -0.62726600
Cl          8.26024300     -2.22267900      1.99690400
C          -4.68384000      0.71984100     -0.38556400
C          -5.77825300      0.20813500     -0.49527100
C          -7.10955700     -0.42394400     -0.60192400
C          -8.16625200      0.42617700      0.11696400
H          -8.23593000      1.39992700     -0.37475000
H          -9.13521000     -0.07719900      0.06111800
H          -7.89793400      0.58318500      1.16549200
O          -7.50932600     -0.54473900     -1.96434600
H          -7.23171300     -1.43988000     -2.24237500
C          -7.01278800     -1.82786800     -0.00890400
S          -6.85807500     -2.16805600      1.69784300
C          -6.84556700     -4.03755300     -0.03502300
C          -6.75865500     -3.86046700      1.31402100
H          -6.81466000     -4.99385800     -0.54273100
H          -6.65277700     -4.60500700      2.09033600
N          -6.98610200     -2.88090100     -0.77540000
