%chk=/home/zxwei/cal/chk/trans.chk
%mem=16GB
%nprocshared=16
#opt=(ts,calcfc,noeigen,maxstep=10)	scrf=(solvent=tetrahydrofuran)	nosymm	UM062X	def2SVP	guess=(mix,always)	fre

Title Card Required

0 1
C           0.61935200      1.23791200     -0.39613200
C           0.21164300      3.65590300     -1.00208500
C          -1.17175200      3.16055400     -1.41594300
C          -1.66308400      2.07138700     -0.46255300
C           1.73859300      0.52236900      0.01021300
C           2.80071200      1.45918900     -0.05699800
H           0.14825600      4.30136000     -0.11902600
H          -1.87097100      4.00124800     -1.40704000
H          -1.73251100      2.45086000      0.56463700
H           1.79407000     -0.50472600      0.32909300
H           0.70163400      4.21610700     -1.80130800
H          -1.14258300      2.75820400     -2.43425200
H          -2.64315800      1.70387200     -0.75519700
N           2.37470100      2.67019400     -0.45910000
C           4.16740500      1.22301500      0.24775500
C           5.32769600      0.99075100      0.51044900
C           6.73842200      0.73033300      0.84401200
C           7.63729100      1.86396300      0.32724900
H           8.67030300      1.66101900      0.62233200
H           7.58062400      1.93049200     -0.76136100
H           7.31586000      2.81449100      0.76302300
O           6.89660100      0.55910800      2.26007800
H           6.40934900      1.27799000      2.69523000
C           7.14788700     -0.59962100      0.23480800
S           7.10310100     -2.06643200      1.19335200
C           7.75001500     -2.09837000     -1.27158800
C           7.59144400     -2.95089400     -0.21724200
H           8.05843100     -2.39075500     -2.26845200
H           7.74731900     -4.02010900     -0.18571000
N           7.49451200     -0.76786700     -1.00830700
C          -1.20670100     -0.36641100     -0.64791800
N          -2.51039000     -0.53945800     -0.37988900
C          -0.40134200     -1.43938900     -1.07265700
C          -3.01014600     -1.77199300     -0.52752400
C          -1.03597000     -2.66932200     -1.17849400
H           0.63524800     -1.31972100     -1.34876200
N          -2.32875700     -2.87608400     -0.90720200
H          -0.47303700     -3.53931500     -1.51111400
N          -0.73242700      0.92808800     -0.50514200
N          -4.34009200     -1.99898100     -0.28083000
H          -4.60402900     -2.95642300     -0.47334800
C          -5.38153600     -1.13871700      0.10435300
C          -6.69211900     -1.66664400     -0.01745500
C          -5.18498400      0.15586100      0.60566800
C          -7.73801500     -0.85965800      0.36884300
H          -6.86462800     -2.66578400     -0.40356000
C          -6.27667500      0.95828700      0.98750000
H          -4.18064100      0.53807200      0.69847800
C          -7.54270800      0.42987400      0.85910100
H          -6.11777000      1.95784900      1.37702300
C          -9.74383200      0.08087400      0.67607300
H         -10.17972800      0.49443500     -0.24241700
H         -10.50772900     -0.09826400      1.43442600
O          -8.75978300      0.98674000      1.19239400
O          -9.07899300     -1.15703200      0.36871400
N           1.05015400      2.50782100     -0.67273200
