%chk=/home/zxwei/cal/chk/trans.chk
%mem=16GB
%nprocshared=16
#opt=(ts,calcfc,noeigen,maxstep=10)	scrf=(solvent=tetrahydrofuran)	nosymm	UM062X	def2SVP	guess=(mix,always)	fre

Title Card Required

0 1
C           0.11674100      0.67645300     -0.66158200
C          -0.24127800      3.06384100     -1.42003000
C          -1.65735900      2.58886900     -1.73747900
C          -2.13939500      1.57454000     -0.70038700
C           1.22545600     -0.04908600     -0.23519400
C           2.30951800      0.84260100     -0.39144200
H          -0.22525500      3.78007400     -0.59081300
H          -2.32876000      3.45200300     -1.74668000
H          -2.15490800      2.01569600      0.30398800
H           1.28870900     -1.05322900      0.15226600
H           0.22975200      3.53191000     -2.28809400
H          -1.69151400      2.12638300     -2.72973800
H          -3.14059800      1.22030700     -0.93161600
N           1.90575300      2.03501200     -0.86806100
C           3.67034500      0.58888100     -0.08151600
C           4.81896800      0.33834200      0.20653600
C           6.20251600      0.05406600      0.61957400
C           6.43089200      0.52249600      2.07138100
H           6.24283800      1.59853400      2.14820200
H           5.75136400     -0.00031300      2.74884800
H           7.46432500      0.31270400      2.36154500
O           7.14648400      0.66493800     -0.26424800
C           6.46583500     -1.43707200      0.52087500
S           8.03836500     -2.03609600      0.06147500
C           6.15684700     -3.62304900      0.72287300
C           7.46027800     -3.65195300      0.32327800
H           5.54296000     -4.48756200      0.94309200
H           8.09574700     -4.50977400      0.15466600
N           5.60326500     -2.36283300      0.83465000
C          -1.75515100     -0.88656100     -0.73907600
N          -3.05259700     -1.00409700     -0.41910000
C          -0.98906300     -2.00816600     -1.10593600
C          -3.58574600     -2.23123800     -0.45721200
C          -1.65421700     -3.22617900     -1.09507300
H           0.04071200     -1.93722700     -1.42039300
N          -2.94215800     -3.37821400     -0.76969000
H          -1.12154700     -4.13331800     -1.37428100
N          -1.24399200      0.40214600     -0.70877000
N          -4.91271600     -2.40325600     -0.15670500
H          -5.20668600     -3.36465500     -0.26958300
C          -5.92186900     -1.48631000      0.18176200
C          -7.24823700     -1.98485700      0.12979200
C          -5.67886500     -0.16480500      0.58238700
C          -8.26227400     -1.12475700      0.48532900
H          -7.45676000     -3.00270900     -0.18241400
C          -6.73919300      0.69361500      0.92924900
H          -4.66257500      0.19337800      0.62885100
C          -8.02103400      0.19105800      0.87499300
H          -6.54493900      1.71668500      1.23209000
C         -10.20781600     -0.21324200      1.10527800
H         -11.06611200      0.11245600      0.51544400
H         -10.49950400     -0.46572600      2.13281600
O          -9.21966800      0.82530800      1.12732000
O          -9.61438300     -1.36699000      0.48456700
N           0.56952900      1.90942800     -1.03706100
H           7.15546700      1.61699700     -0.07080100
O           3.02577800      4.44810000     -0.04610800
H           2.68481900      3.62613100     -0.48001400
C           3.77260500      4.02888400      1.09488900
H           4.65169600      3.44094700      0.80093700
H           4.10716500      4.92745400      1.61961600
H           3.16704600      3.42332400      1.78277100
H           3.67510200     -2.41125300      0.69857200
O           2.80767400     -2.77915700      0.42056200
C           2.90928200     -3.01980700     -0.97498900
H           1.99786800     -3.53869300     -1.28842300
H           2.99308900     -2.08812000     -1.55339800
H           3.76999700     -3.65759900     -1.22251300
H           1.48559900      5.12642300      0.47942400
O           0.59493400      5.49281300      0.69871300
C           0.37029000      6.56666800     -0.20020700
H           1.14443000      7.34488800     -0.12142400
H           0.32616000      6.23524700     -1.24954200
H          -0.59413800      7.01936900      0.05126100
