%chk=/home/zxwei/cal/chk/trans.chk
%mem=16GB
%nprocshared=16
#opt=(ts,calcfc,noeigen,maxstep=10)	scrf=(solvent=tetrahydrofuran)	nosymm	UM062X	def2SVP	guess=(mix,always)	fre

Title Card Required

0 1
C           0.43514900     -1.03534000     -0.55353500
C          -0.07485600     -3.35867600     -1.40082200
C          -1.41372400     -2.75062400     -1.81053200
C          -1.88460300     -1.73191200     -0.77276500
C           1.57424200     -0.42477600     -0.04368300
C           2.58870900     -1.40764700     -0.16837600
H           0.41352900     -3.87090300     -2.23262900
H          -1.32388700     -2.25509500     -2.78317000
H          -2.83168700     -1.28452100     -1.06302700
H           1.67136400      0.56202300      0.37650300
H          -0.20509800     -4.07716700     -0.58379900
H          -2.15576800     -3.54800500     -1.90702300
H          -2.01532200     -2.20349400      0.20933200
N           2.11631800     -2.54838200     -0.70187400
C           3.95311800     -1.27729200      0.20450400
C           5.11126300     -1.13938100      0.53423900
C           6.52683400     -0.97295500      0.92556000
C           7.41459600     -1.96412800      0.16020600
H           7.29890700     -1.84332600     -0.92051800
H           8.45989100     -1.79911900      0.43495300
H           7.12650800     -2.98342600      0.42999700
O           6.70135700     -1.22568600      2.31652200
H           6.62879800     -0.35454800      2.75418200
C           6.92459400      0.47562700      0.65140200
S           7.18310200      1.14394600     -0.94167500
C           7.37031800      2.58820700      1.15029800
C           7.48520700      2.68862200     -0.20463700
H           7.51214500      3.40168200      1.85125900
H           7.73166600      3.55503100     -0.80195500
N           7.04982400      1.33228400      1.62484600
C          -1.29781700      0.68241600     -0.67785600
N          -2.59628900      0.89604800     -0.41414200
C          -0.42810900      1.74960400     -0.96969000
C          -3.02684300      2.16340100     -0.43170200
C          -0.99455600      3.01648100     -0.95035500
H           0.60618100      1.60312400     -1.24147000
N          -2.28016900      3.26300100     -0.67748200
H          -0.37992100      3.88539600     -1.17756400
N          -0.89470200     -0.64336100     -0.67172200
N          -4.34734000      2.43455800     -0.17953800
H          -4.55970400      3.41918700     -0.27384300
C          -5.43890300      1.59716700      0.09987600
C          -5.29399800      0.23909800      0.46846900
C          -6.71481700      2.18162400      0.03593100
C          -6.45571700     -0.45262700      0.74186000
H          -4.32134700     -0.22280100      0.52834700
C          -7.87782000      1.45148900      0.32529300
H          -6.80515400      3.22701300     -0.24431300
C          -7.71940200      0.12594200      0.67576100
H          -8.85732400      1.91279600      0.26803900
C          -7.95147900     -1.95307800      1.45742100
H          -8.33912100     -2.86316400      0.99698100
H          -8.02839700     -1.99287700      2.55185000
O          -8.68050600     -0.82013700      0.96556500
O          -6.57423500     -1.77931400      1.08517700
N           0.80990800     -2.29376200     -0.94075300
