%chk=/home/zxwei/cal/chk/trans.chk
%mem=16GB
%nprocshared=16
#opt=(ts,calcfc,noeigen,maxstep=10)	scrf=(solvent=tetrahydrofuran)	nosymm	UM062X	def2SVP	guess=(mix,always)	fre

Title Card Required

0 1
C           0.40599300     -0.37377400     -0.34023400
C           0.31883000     -2.71850500     -1.27243000
C          -1.08494100     -2.32438700     -1.72460600
C          -1.75725900     -1.42893000     -0.68385600
C           1.40713300      0.39584400      0.23947400
C           2.57318200     -0.40369000      0.13437400
H           0.91726200     -3.11428200     -2.09591400
H          -1.04063700     -1.79105300     -2.68024300
H          -2.75211800     -1.13172600     -1.00523100
H           1.32206100      1.36971100      0.69125600
H           0.27745600     -3.47722300     -0.48290900
H          -1.68162600     -3.22878700     -1.87230100
H          -1.84871300     -1.94647700      0.27932600
N           2.31717800     -1.58688200     -0.45123400
C           3.88273500     -0.06794400      0.57243000
C           4.99217400      0.23772700      0.95227100
C           6.35208600      0.59459100      1.41272900
C           6.66910600     -0.09149500      2.74858700
H           7.69081400      0.15627700      3.04922000
H           5.97084100      0.26731800      3.50911700
H           6.56758300     -1.17733000      2.66620200
O           6.45849000      1.99961100      1.61303000
H           6.80770100      2.35972700      0.77376700
C           7.33902400      0.19147100      0.31919800
S           7.78571900     -1.45587500     -0.05053900
C           8.70038800      0.50315300     -1.40098200
C           8.77853200     -0.85697900     -1.34542100
H           9.22368000      1.13044000     -2.11221300
H           9.35229900     -1.52949100     -1.96727600
N           7.88062500      1.08707300     -0.45646500
C          -1.57392200      1.04611800     -0.52470800
N          -2.90259000      1.04445600     -0.33442100
C          -0.87190500      2.24454500     -0.75222100
C          -3.52935900      2.22683200     -0.36342500
C          -1.63463500      3.40395400     -0.75185400
H           0.18612600      2.27104200     -0.96394700
N          -2.95653000      3.43639100     -0.55267300
H          -1.15562700      4.36438200     -0.93233600
N          -0.96384500     -0.19799000     -0.51049700
N          -4.88846100      2.27881600     -0.18642900
H          -5.24951800      3.21900200     -0.28223600
C          -5.84603700      1.27277900      0.01782900
C          -5.50652300     -0.05362000      0.37393700
C          -7.19353600      1.64872600     -0.11138200
C          -6.55603100     -0.92730700      0.56889700
H          -4.47727200     -0.35631000      0.48255100
C          -8.23899600      0.73638200      0.09867300
H          -7.43441900      2.67278100     -0.38099400
C          -7.89030000     -0.55518900      0.43795700
H          -9.27498800      1.03750600     -0.00879200
C          -7.83006400     -2.66494800      1.16888100
H          -8.04025800     -3.61168800      0.66873700
H          -7.96116600     -2.74761500      2.25570100
O          -8.70240300     -1.64871400      0.65571300
O          -6.47961600     -2.26415700      0.88361200
N           0.99693600     -1.54018600     -0.74348100
