%chk=/home/zxwei/cal/chk/trans.chk
%mem=16GB
%nprocshared=16
#opt=(ts,calcfc,noeigen,maxstep=10)	scrf=(solvent=tetrahydrofuran)	nosymm	UM062X	def2SVP	guess=(mix,always)	fre

Title Card Required

0 1
C          -0.62191100     -2.09360700      0.16008800
C          -1.07891100     -0.77564800     -0.02830700
C          -2.43096100     -0.52474800     -0.27003300
C          -3.33505800     -1.61894600     -0.41605100
C          -2.85924400     -2.92193600     -0.21800900
C          -1.52211400     -3.16626100      0.08563500
H          -0.38163000      0.04818300      0.01925300
H          -3.54375300     -3.75683800     -0.31349700
H          -1.17441300     -4.18058200      0.24749400
C          -4.97614000     -0.79756000     -2.03031400
C          -5.68997200     -2.32848800     -0.30017000
C          -6.38118400     -0.20930300     -2.04588900
H          -4.89858200     -1.60031700     -2.78205000
H          -4.24531900     -0.02520200     -2.27881900
C          -7.07234000     -1.68458900     -0.36277500
H          -5.66865800     -3.21007600     -0.96302900
H          -5.49014600     -2.66413600      0.72216000
H          -6.64505300      0.12055200     -3.05438200
H          -6.42525400      0.64877400     -1.35956200
H          -7.84552600     -2.42490800     -0.14014800
H          -7.12437000     -0.86847600      0.37144900
N          -4.68996900     -1.33277400     -0.68637500
O          -7.35030900     -1.18464800     -1.66847500
N          -3.00328100      0.75708500     -0.29550400
C          -2.39713500      1.98153100     -0.31722400
N          -1.07325900      2.05539000     -0.50667900
C          -3.18537600      3.14580600     -0.15319800
C          -0.52233400      3.26865000     -0.51493600
C          -2.50492400      4.34487700     -0.16846700
H          -4.25788300      3.09322200     -0.02079000
N          -1.17408600      4.44153000     -0.34266300
H          -3.03532400      5.28435500     -0.03569100
N           0.83900700      3.41176700     -0.69215400
C           1.83447900      2.48045400     -0.96161900
C           3.15923200      2.97131600     -0.99966300
N           1.53112200      1.19867800     -1.18642500
C           4.16439600      2.07114300     -1.30242700
H           3.37564500      4.01486800     -0.80160300
C           2.53838800      0.36169900     -1.46789600
C           3.87549600      0.72948600     -1.55233100
H           2.26300200     -0.67412700     -1.63186100
H           4.64204900      0.00102400     -1.77758600
Cl          5.82795200      2.63003300     -1.36545800
C           0.75010600     -2.30969600      0.48682200
C           1.91362200     -2.46289500      0.79143300
C           3.31998600     -2.64148300      1.19175500
C           3.40620900     -3.42632300      2.51393900
H           2.96727200     -4.41844600      2.37488900
H           4.45778400     -3.53152300      2.79401200
H           2.86944400     -2.90369300      3.30880900
O           4.04099300     -3.41539200      0.23617700
C           3.97832000     -1.27242700      1.36093300
S           3.08455300      0.10483200      1.98169900
C           5.56664700      0.26392700      1.44557700
C           4.54608900      1.03263800      1.92482700
H           6.58169200      0.60783200      1.28779100
H           4.56227800      2.07461300      2.21100000
N           5.23934800     -1.04057400      1.13473000
H           4.01532400     -2.95552200     -0.64324400
O           2.87225100     -5.88274400     -0.43195900
C           1.47016200     -5.82226400     -0.22278500
H           1.20986700     -5.58243800      0.81875700
H           0.97899800     -5.08199300     -0.87098400
H           1.05982400     -6.80913400     -0.45906600
H           3.25742700     -5.02402500     -0.15327500
H           4.59479900     -2.78263300     -2.76623800
O           3.78607200     -2.52066900     -2.29723900
C           2.70453700     -3.34722800     -2.76594000
H           2.85157100     -4.39211300     -2.47310700
H           1.80046000     -2.96867900     -2.28608400
H           2.59800000     -3.26730100     -3.85238600
H          -3.64911700     -1.59564400      1.89415900
O          -4.02969100     -1.00650800      2.56755600
C          -2.93898000     -0.32133500      3.19715300
H          -3.37090400      0.31625500      3.97080000
H          -2.24653500     -1.03071200      3.66429800
H          -2.38722800      0.30150700      2.48368200
H           1.14731000      4.38587400     -0.62438200
O           0.93488200      6.23579900     -0.18819900
C           1.22637500      6.31793900      1.20481700
H           0.60889200      7.07622900      1.70511700
H           1.07601600      5.35491100      1.71334800
H           2.27697200      6.60287000      1.30692700
H           0.01402900      5.88006500     -0.26460900
H          -5.08163400      0.19338600      1.67733200
O          -5.48952600      0.98930800      1.26536500
C          -5.50550200      2.01079600      2.25898900
H          -6.03040700      1.68349400      3.16626300
H          -4.49269600      2.33462600      2.53553600
H          -6.03844900      2.86938200      1.84139700
H          -3.99509900      0.77656800     -0.04041100
