%chk=/home/zxwei/cal/chk/trans.chk
%mem=16GB
%nprocshared=16
#opt=(ts,calcfc,noeigen,maxstep=10)	scrf=(solvent=tetrahydrofuran)	nosymm	UM062X	def2SVP	guess=(mix,always)	fre

Title Card Required

0 1
C          -3.01507500      0.81467500     -0.52172000
C          -1.66786700      0.54764100     -0.21794000
C          -0.75782800      1.59026600     -0.06003000
C          -1.18778400      2.93676800     -0.18171600
C          -2.53729400      3.18994300     -0.44610400
C          -3.44382600      2.14834900     -0.62254900
H          -1.35207600     -0.47694900     -0.06494800
H          -2.88166300      4.21410400     -0.53425300
H          -4.48372500      2.36214900     -0.84484900
C           0.73350900      4.12650800     -1.09252400
C          -0.70913600      5.25323400      0.48396300
C           1.88294900      5.01225000     -0.62943000
H           0.23128600      4.58878400     -1.95800400
H           1.11591300      3.15114700     -1.40182700
C           0.48796400      6.09489800      0.91457800
H          -1.25898900      5.79273300     -0.30547900
H          -1.38386000      5.10043900      1.33148600
H           2.56142000      5.22424300     -1.45997200
H           2.44521900      4.49836200      0.16665900
H           0.16391000      7.09486800      1.21458700
H           0.98877000      5.60956400      1.76677400
N          -0.22267200      3.95306200      0.01898600
O           1.40934000      6.26995700     -0.15756900
N           0.57402500      1.38452200      0.32526200
H           0.98104600      2.15322900      0.85059800
C           1.46088500      0.41961900     -0.06321300
N           2.65805500      0.48642300      0.54228900
C           1.19064700     -0.56219300     -1.04352800
C           3.57051700     -0.43104400      0.18642700
C           2.21781800     -1.44384100     -1.31527500
H           0.25207300     -0.60925000     -1.57627700
N           3.41972300     -1.41419000     -0.71136600
H           2.08365400     -2.22206400     -2.06327900
N           4.77187500     -0.29401300      0.85326300
H           4.79544000      0.47225900      1.51495300
C           5.95898100     -1.01014900      0.79007600
C           6.16926700     -2.11591400     -0.05356400
N           6.90009000     -0.53502000      1.62695100
C           7.41630700     -2.71863700      0.00674900
H           5.38301900     -2.46106700     -0.70721800
C           8.08527500     -1.15094400      1.64820600
C           8.41341900     -2.25297400      0.86156600
H           8.82191200     -0.74106600      2.33567200
H           9.38941200     -2.71861100      0.91451400
Cl          7.73891300     -4.10465000     -1.02432900
C          -3.93624800     -0.26125500     -0.69181100
C          -4.71618000     -1.17850200     -0.83636200
C          -5.68259000     -2.28491200     -1.00343100
C          -6.58173600     -2.03662900     -2.22239500
H          -5.96362700     -2.01375100     -3.12360000
H          -7.31174200     -2.84650800     -2.30460100
H          -7.10713600     -1.08138900     -2.13521200
O          -5.00325200     -3.51863600     -1.21121400
H          -4.92329600     -3.92753600     -0.32674200
C          -6.49465800     -2.39977700      0.28522600
S          -7.72527200     -1.26373900      0.78174800
C          -7.07937900     -3.24675200      2.24772300
C          -7.93119400     -2.18209600      2.24321500
H          -7.00420700     -3.98315000      3.03847900
H          -8.65736100     -1.89116300      2.98903900
N          -6.26848300     -3.35967700      1.13640800
