%chk=/home/zxwei/cal/chk/trans.chk
%mem=16GB
%nprocshared=16
#opt=(ts,calcfc,noeigen,maxstep=10)	scrf=(solvent=tetrahydrofuran)	nosymm	UM062X	def2SVP	guess=(mix,always)	fre

Title Card Required

0 1
C          -2.98123500      0.79531400     -0.52732300
C          -1.59688900      0.57181100     -0.63483000
C          -0.69309900      1.61036200     -0.42323100
C          -1.16204600      2.91341400     -0.11630400
C          -2.54206100      3.13038500     -0.04652900
C          -3.44554000      2.08974100     -0.24167500
H          -1.23857700     -0.40747500     -0.92769600
H          -2.91654500      4.12190400      0.18099100
H          -4.51213500      2.27277200     -0.16798200
C          -0.63231600      5.30948700     -0.21163100
C           0.56479200      3.87203500      1.31498700
C           0.59909900      6.20785700     -0.26778500
H          -1.31227700      5.68325700      0.57234600
H          -1.16073600      5.34000500     -1.16908500
C           1.75493800      4.81890700      1.22711500
H          -0.07771600      4.15866700      2.16350700
H           0.91295000      2.85039800      1.48162000
H           0.30458900      7.25131800     -0.40712300
H           1.23797000      5.90018500     -1.11029800
H           2.28997600      4.85008000      2.17990500
H           2.44510800      4.46917900      0.44269200
N          -0.19883600      3.93651500      0.05300800
O           1.33675900      6.15173900      0.94953400
N           0.68921200      1.45792100     -0.60407600
H           1.17038000      2.30137400     -0.90302300
C           1.50836500      0.42695500     -0.23690400
N           2.79390700      0.57916600     -0.59494900
C           1.08077400     -0.70624500      0.49188600
C           3.64143700     -0.40092600     -0.24494600
C           2.05572300     -1.63776800      0.78786000
H           0.06160000     -0.83048900      0.82794200
N           3.34649300     -1.52232900      0.42628200
H           1.80098300     -2.53199700      1.35232500
N           4.94134700     -0.16988700     -0.64938100
H           5.07258800      0.69879100     -1.15315100
C           6.10915300     -0.90330900     -0.49308600
C           6.18059200     -2.14097300      0.17163100
N           7.17955500     -0.30463500     -1.04774300
C           7.42816200     -2.74178100      0.23975500
H           5.29408400     -2.58284700      0.59988600
C           8.35927700     -0.92446400     -0.95577200
C           8.55704500     -2.15001800     -0.32340700
H           9.20222600     -0.41279600     -1.41499500
H           9.53439400     -2.61328100     -0.27474800
Cl          7.58037400     -4.28909200      1.05896900
C          -3.89863100     -0.27612000     -0.74128700
C          -4.67787700     -1.18725000     -0.92295800
C          -5.64212500     -2.28626800     -1.14370900
C          -6.41879400     -2.07014200     -2.45030200
H          -5.71818900     -2.08901000     -3.28909500
H          -7.15178300     -2.87228400     -2.57277000
H          -6.93326800     -1.10504900     -2.44721600
O          -4.96592400     -3.53485600     -1.24629500
H          -4.97635200     -3.91555800     -0.34589200
C          -6.57337100     -2.34570600      0.06538200
S          -7.81831400     -1.17000800      0.41137700
C          -7.36164400     -3.12262000      1.98514600
C          -8.18362900     -2.04096500      1.87055800
H          -7.37912800     -3.83712100      2.79901600
H          -8.97028300     -1.71352300      2.53549000
N          -6.45174700     -3.28491300      0.95987300
