%chk=/home/zxwei/cal/chk/trans.chk
%mem=16GB
%nprocshared=16
#opt=(ts,calcfc,noeigen,maxstep=10)	scrf=(solvent=tetrahydrofuran)	nosymm	UM062X	def2SVP	guess=(mix,always)	fre

Title Card Required

0 1
C          -3.21824500      1.20193800     -0.47226200
C          -1.87897700      0.86637500     -0.20236300
C          -0.92262900      1.86180600     -0.01713500
C          -1.29629500      3.22933100     -0.07731900
C          -2.63774800      3.54962500     -0.30925100
C          -3.59067200      2.55548200     -0.51216100
H          -1.60584100     -0.17620500     -0.09592000
H          -2.93935500      4.59001300     -0.35165700
H          -4.62350900      2.82196700     -0.70892000
C           0.66553900      4.37084700     -0.96454900
C          -0.71590400      5.49726600      0.66602800
C           1.85343100      5.19349200     -0.48265000
H           0.17431700      4.88302900     -1.80794900
H           1.00620700      3.39296100     -1.31200600
C           0.51786000      6.27493900      1.11300600
H          -1.25093600      6.08637700     -0.09765700
H          -1.38824100      5.34152200      1.51489200
H           2.53230200      5.40725800     -1.31240700
H           2.40191700      4.63025500      0.28931600
H           0.23641200      7.27549600      1.45157400
H           1.00730700      5.74049200      1.94214200
N          -0.28741700      4.19592000      0.14967200
O           1.43515000      6.45167100      0.03772400
N           0.40404500      1.58362600      0.33908700
H           0.85092900      2.30862600      0.89307800
C           1.23822100      0.58946200     -0.08991500
N           2.43988700      0.57183400      0.51003500
C           0.91344600     -0.33930300     -1.10473600
C           3.30193200     -0.37774400      0.11446000
C           1.89208500     -1.26224900     -1.41545300
H          -0.02814700     -0.31690500     -1.63376300
N           3.09631300     -1.31769800     -0.81793400
H           1.71462900     -2.00367400     -2.19128300
N           4.51168300     -0.32819600      0.77831100
H           4.57854700      0.41146800      1.46681000
C           5.66024600     -1.10095500      0.68005200
C           5.80811900     -2.18579300     -0.20310900
N           6.63004100     -0.70385900      1.52475900
C           7.02322200     -2.85276300     -0.17436100
H           5.00113600     -2.46769100     -0.86188800
C           7.78244200     -1.37940800      1.51440800
C           8.04865400     -2.46839400      0.68728600
H           8.54367400     -1.03177500      2.20932900
H           8.99999300     -2.98447400      0.71563400
Cl          7.26759800     -4.21674500     -1.25513000
C          -4.18479400      0.17111000     -0.66667000
C          -4.99910200     -0.71262400     -0.83026000
C          -5.99349300     -1.79144000     -1.00799800
C          -7.40924700     -1.20875700     -1.11067200
H          -7.46968300     -0.57165100     -1.99679800
H          -8.13075500     -2.02501200     -1.20257000
H          -7.65202500     -0.60608100     -0.23099700
O          -5.74218500     -2.52086600     -2.20594500
H          -5.16978400     -3.26860800     -1.94366000
C          -5.85626600     -2.75250200      0.17096100
S          -6.39743000     -2.40601300      1.79566900
C          -5.19812200     -4.58345100      1.23180600
C          -5.75727400     -3.94210700      2.29723600
H          -4.73084300     -5.56004700      1.26575300
H          -5.83874900     -4.27429200      3.32252300
N          -5.25627700     -3.90073000      0.03355800
