%chk=/home/zxwei/cal/chk/trans.chk
%mem=16GB
%nprocshared=16
#opt=(ts,calcfc,noeigen,maxstep=10)	scrf=(solvent=tetrahydrofuran)	nosymm	UM062X	def2SVP	guess=(mix,always)	fre

Title Card Required

0 1
C           0.63762500      1.22618500      0.36803600
C           0.24249600      3.63169300      1.02793200
C          -1.13760400      3.13150400      1.44698700
C          -1.64217300      2.06273300      0.47760000
C           1.75014200      0.51766400     -0.06811000
C           2.81544200      1.45058800      0.00580100
H           0.74209400      4.17550000      1.83257600
H          -1.09850800      2.70892500      2.45675800
H          -2.61976500      1.69171000      0.77408200
H           1.79903000     -0.50216700     -0.41056000
H           0.17098200      4.29442500      0.15831800
H          -1.83477400      3.97382500      1.46243700
H          -1.72235900      2.46302300     -0.54087200
N           2.39714900      2.65288200      0.44037700
C           4.17797200      1.21828300     -0.32164100
C           5.33392000      0.99335900     -0.60845900
C           6.74758000      0.72427600     -0.94574100
C           7.66730100      1.72644000     -0.23444100
H           7.52222600      1.69350300      0.84903500
H           8.70865000      1.49051700     -0.46946700
H           7.43684000      2.73522000     -0.58650300
O           6.96850800      0.85705800     -2.34672100
H           6.86052800     -0.04132700     -2.71680500
C           7.06187500     -0.71629900     -0.54886300
S           7.25323600     -1.26752600      1.09761900
C           7.40362400     -2.88218100     -0.86901600
C           7.48634800     -2.87974300      0.49198600
H           7.51539200     -3.75538200     -1.50006000
H           7.67422800     -3.70713500      1.16156200
N           7.16024600     -1.65331800     -1.44853600
C          -1.18956300     -0.37931700      0.60453900
N          -2.49676900     -0.54359500      0.34766000
C          -0.38184700     -1.46372300      0.99469100
C          -2.99730500     -1.77841000      0.47170400
C          -1.01781200     -2.69454100      1.07879000
H           0.65814900     -1.35259400      1.26135300
N          -2.31406100     -2.89246600      0.81744500
H          -0.45298600     -3.57321800      1.38430800
N          -0.71380400      0.91684400      0.48649800
N          -4.33034400     -1.99749500      0.23456500
H          -4.59326600     -2.95923300      0.40588900
C          -5.37473600     -1.12787700     -0.12002200
C          -6.68393500     -1.66102800     -0.00592500
C          -5.18293400      0.18104500     -0.58459700
C          -7.73316600     -0.84471100     -0.36226400
H          -6.85287100     -2.67141500      0.35144400
C          -6.27799700      0.99253400     -0.93651200
H          -4.17962800      0.56709600     -0.67243800
C          -7.54256800      0.45882600     -0.81593900
H          -6.12269400      2.00318400     -1.29786100
C          -9.74219600      0.10083800     -0.63117000
H         -10.50961400     -0.05769100     -1.39057800
H         -10.17425400      0.48674700      0.30107200
O          -8.76237200      1.02320700     -1.12589400
O          -9.07366900     -1.14421400     -0.36318700
N           1.07446200      2.48852900      0.66751000
