%chk=/home/zxwei/cal/chk/trans.chk
%mem=16GB
%nprocshared=16
#opt=(ts,calcfc,noeigen,maxstep=10)	scrf=(solvent=tetrahydrofuran)	nosymm	UM062X	def2SVP	guess=(mix,always)	fre

Title Card Required

0 1
C          -0.52999700     -1.99647800      0.00279800
C          -1.19525100     -0.77318300      0.17768100
C          -2.54794000     -0.64599400     -0.13294600
C          -3.25561100     -1.75922000     -0.67017600
C          -2.57570200     -2.97999200     -0.82071100
C          -1.22994300     -3.10932700     -0.48778000
H          -0.64744600      0.08134800      0.54165000
H          -3.10443300     -3.83358300     -1.22908100
H          -0.70679400     -4.04841100     -0.63279300
C          -4.96355500     -0.69105500     -2.06543300
C          -5.45523900     -2.81236300     -1.01451600
C          -6.44446900     -0.34350700     -1.98714100
H          -4.74099500     -1.16426100     -3.03620300
H          -4.36381400      0.21665300     -1.98218300
C          -6.92243400     -2.39386000     -0.96031500
H          -5.27624300     -3.39915900     -1.93145800
H          -5.22710300     -3.44728500     -0.15290600
H          -6.73782900      0.27230300     -2.84171400
H          -6.63922300      0.20721800     -1.05584400
H          -7.57058500     -3.26887200     -1.05892500
H          -7.12160400     -1.89907100      0.00141200
N          -4.62417100     -1.61097700     -0.96565000
O          -7.25101800     -1.51894100     -2.03581900
N          -3.28392600      0.51941200      0.15188500
C          -2.81094700      1.79362200      0.26309900
N          -1.54449500      2.03852700     -0.10240700
C          -3.65154400      2.83015000      0.73431300
C          -1.09323200      3.28154400      0.03052000
C          -3.07819000      4.08266000      0.81777100
H          -4.68246600      2.65167200      1.01229100
N          -1.80031600      4.34291900      0.48415200
H          -3.65650200      4.93158000      1.17365100
N           0.21095000      3.58304000     -0.31344200
C           1.22723100      2.78763600     -0.82859500
C           2.40764900      3.45656000     -1.22871000
N           1.08124300      1.46259400     -0.92426700
C           3.41805500      2.69126500     -1.77930900
H           2.50924900      4.52982300     -1.11559300
C           2.08317800      0.76152200     -1.47242300
C           3.27123200      1.31189300     -1.93606100
H           1.92842400     -0.31254600     -1.52830900
H           4.05004800      0.69836400     -2.36829200
Cl          4.91380900      3.46417000     -2.27773600
C           0.84710400     -2.09357900      0.35468600
C           2.02078300     -2.16115500      0.64641900
C           3.44061100     -2.32937600      0.97452100
C           3.61310700     -2.92605700      2.38010300
H           3.09762600     -3.88932900      2.42383100
H           4.67544200     -3.07509000      2.58621300
H           3.17849700     -2.26124900      3.13081700
O           4.03687500     -3.25060300      0.02897400
C           4.17759900     -1.00260000      0.83604200
S           3.81072200      0.42643400      1.76180900
C           5.69670900      0.40546300      0.04664200
C           5.10638500      1.24368800      0.94488200
H           6.51996200      0.66571300     -0.60631500
H           5.33544600      2.27808400      1.15716200
N           5.15919500     -0.86530300     -0.01067300
H           4.54239400     -2.69261400     -0.60218100
O           1.94880200     -4.65967400     -1.49777300
C           1.79205700     -3.78126700     -2.60207000
H           2.74948000     -3.55929200     -3.09732100
H           1.13991800     -4.27792000     -3.32688100
H           1.32256800     -2.83009500     -2.31393700
H           2.58410600     -4.23268300     -0.89251100
H           5.51982200     -4.17463500      0.81383400
O           6.34358400     -4.43337600      1.27058000
C           7.38437900     -3.62812000      0.73216500
H           7.16955200     -2.55459300      0.82104700
H           8.29508100     -3.84908100      1.29700100
H           7.57780900     -3.85110400     -0.32848300
H          -3.70913200     -2.49393400      1.49244100
O          -4.19381200     -2.20621100      2.28479800
C          -3.22862500     -1.66333200      3.19588800
H          -2.47589000     -2.41354100      3.46295800
H          -2.72610000     -0.78500800      2.77422800
H          -3.77309600     -1.36916000      4.09519300
H           0.42705600      4.57941800     -0.21797800
O           0.11092200      6.35129200      0.43477900
C           0.67322200      6.35763500      1.74454100
H           0.09864200      6.99494500      2.43040600
H           0.72876400      5.34634700      2.17211400
H           1.68805200      6.75719700      1.66750600
H          -0.76417400      5.89273000      0.50437500
H          -5.31862400     -0.89569900      1.72834500
O          -5.76999100     -0.04625400      1.51202000
C          -5.91620100      0.67940700      2.73064200
H          -6.45016300      0.09136800      3.48822500
H          -4.94719800      0.99020700      3.14515300
H          -6.50215900      1.57612300      2.51176300
H          -4.25745200      0.36646600      0.44303200
