%chk=/home/zxwei/cal/chk/trans.chk
%mem=16GB
%nprocshared=16
#opt=(ts,calcfc,noeigen,maxstep=10)	scrf=(solvent=tetrahydrofuran)	nosymm	UM062X	def2SVP	guess=(mix,always)	fre

Title Card Required

0 1
C           3.06614900      1.04340200     -0.59129200
C           1.68687600      0.77906700     -0.66827400
C           0.75706100      1.78447800     -0.41358800
C           1.19382000      3.09493100     -0.09011700
C           2.56800400      3.35266400     -0.04847800
C           3.49781000      2.34537600     -0.28923500
H           1.35203000     -0.20471100     -0.97327900
H           2.91761400      4.35037000      0.19135000
H           4.55976800      2.56024200     -0.23844900
C          -0.53052100      3.97599800      1.39582200
C           0.59269500      5.47542900     -0.12792800
C          -1.74887100      4.88929300      1.34954800
H           0.12057000      4.26564400      2.23677700
H          -0.84545900      2.94166700      1.54990300
C          -0.66554200      6.33733200     -0.14298100
H           1.27718600      5.85580800      0.64890500
H           1.10022500      5.53814700     -1.09504200
H          -2.26428200      4.88759400      2.31360700
H          -2.44529400      4.53420400      0.57315000
H          -0.40507500      7.39136400     -0.26996600
H          -1.31281900      6.02504500     -0.97734000
N           0.20545300      4.08561000      0.12050100
O          -1.37516800      6.23849000      1.08818200
N          -0.62368500      1.59440800     -0.56601800
H          -1.13689700      2.42757600     -0.83912400
C          -1.40157800      0.52206600     -0.22982300
N          -2.69462900      0.63956700     -0.57376600
C          -0.92768600     -0.61926900      0.45652300
C          -3.50316500     -0.38276700     -0.25362000
C          -1.86556300     -1.59622200      0.72454100
H           0.09729100     -0.71714700      0.78347000
N          -3.16221900     -1.51601400      0.37464400
H          -1.57407500     -2.49982000      1.25528600
N          -4.81380400     -0.18503500     -0.64079200
H          -4.98072800      0.69661600     -1.11028600
C          -5.95197600     -0.96793100     -0.50775400
C          -5.97129400     -2.23368100      0.10564600
N          -7.04845100     -0.38840200     -1.03089100
C          -7.19447500     -2.88433600      0.15599900
H          -5.06530600     -2.65820600      0.51010300
C          -8.20300400     -1.05630800     -0.95768400
C          -8.34921000     -2.31359200     -0.37554200
H          -9.06827000     -0.55887100     -1.39026600
H          -9.30779400     -2.81567600     -0.34042700
Cl         -7.28152500     -4.46899300      0.91067500
C           4.00872000      0.00484500     -0.85182200
C           4.80669500     -0.88027500     -1.07630800
C           5.78826600     -1.95483400     -1.33691500
C           6.97222400     -1.41922000     -2.15330800
H           7.70077300     -2.22077000     -2.30266300
H           6.60913700     -1.07489900     -3.12508800
H           7.45427600     -0.58010200     -1.64373800
O           5.19172200     -3.00962700     -2.08438500
H           4.87533100     -3.65565600     -1.42238200
C           6.23650600     -2.51999000      0.00954000
S           7.29927300     -1.69347600      1.12276800
C           6.28760300     -3.96343500      1.69008800
C           7.11477300     -3.02235900      2.22794700
H           6.00692200     -4.89440800      2.16731000
H           7.62317800     -3.03159000      3.18168000
N           5.79318100     -3.66853700      0.43553000
