%chk=/home/zxwei/cal/chk/trans.chk
%mem=16GB
%nprocshared=16
#opt=(ts,calcfc,noeigen,maxstep=10)	scrf=(solvent=tetrahydrofuran)	nosymm	UM062X	def2SVP	guess=(mix,always)	fre

Title Card Required

0 1
C          -0.60680000     -0.23275900     -0.85333500
C          -0.56210800     -2.46292200     -2.03860100
C           0.92279800     -2.16180400     -2.22628400
C           1.48919600     -1.45314400     -0.99580100
C          -1.62203600      0.56556800     -0.34183600
C          -2.81744400     -0.10198600     -0.71038900
H          -0.70709500     -3.30409600     -1.35158200
H           1.46069400     -3.09917400     -2.39313100
H           1.37624800     -2.07466100     -0.09877500
H          -1.53221300      1.47473000      0.22835700
H          -1.05301100     -2.70474500     -2.98378700
H           1.07334500     -1.52645000     -3.10566900
H           2.54455100     -1.22595600     -1.12109100
N          -2.56702800     -1.23789700     -1.38600200
C          -4.14726500      0.31507200     -0.43595700
C          -5.27285200      0.69210200     -0.19109900
C          -6.64400300      1.15306200      0.11271400
C          -6.61303500      2.25366000      1.18261600
H          -6.11918500      1.90399600      2.09358300
H          -6.06149500      3.11394500      0.79469900
H          -7.63685300      2.55676700      1.41766200
O          -7.26268800      1.69911100     -1.04836500
H          -7.76793300      0.96389700     -1.44838700
C          -7.46265600     -0.05383400      0.56522200
S          -7.27050400     -0.85601000      2.10509900
C          -8.93821100     -1.69551900      0.36964200
C          -8.49060400     -1.99561200      1.62202300
H          -9.70113000     -2.24389800     -0.16925600
H          -8.80130000     -2.79492700      2.27986700
N          -8.34824200     -0.59637100     -0.22118400
C           1.48701400      1.00308300     -0.60151300
N           2.77346700      0.85713500     -0.24681900
C           0.92131600      2.27933700     -0.78038300
C           3.49172600      1.97161600     -0.06685400
C           1.76705000      3.35561800     -0.55147600
H          -0.09244700      2.42799000     -1.11946500
N           3.04841000      3.24303400     -0.18638400
H           1.39467100      4.37022500     -0.67937100
N           0.78251200     -0.17358200     -0.80024200
N           4.81648700      1.87697500      0.27622200
H           5.26079300      2.78426500      0.32864600
C           5.65856800      0.76761800      0.45871800
C           7.04852100      1.04723000      0.48182700
C           5.19825000     -0.54460100      0.63746100
C           7.90406000     -0.01296100      0.67764100
H           7.42352500      2.05626500      0.34612100
C           6.09972300     -1.60841200      0.83016600
H           4.13692400     -0.73690600      0.62518500
C           7.44679700     -1.31852000      0.84475600
H           5.73748200     -2.62105600      0.96955300
C           9.68014500     -1.36783000      0.76623600
H          10.07335100     -1.63040400     -0.22434200
H          10.42702800     -1.52328700      1.54629400
O           8.51987700     -2.16094800      1.04913800
O           9.27478100      0.01215200      0.76352400
N          -1.21882700     -1.28890000     -1.47331100
