%chk=/home/zxwei/cal/chk/trans.chk
%mem=16GB
%nprocshared=16
#opt=(ts,calcfc,noeigen,maxstep=10)	scrf=(solvent=tetrahydrofuran)	nosymm	UM062X	def2SVP	guess=(mix,always)	fre

Title Card Required

0 1
C          -1.03852000     -2.44697700      0.40046000
C          -1.54994700     -1.20466700     -0.02025000
C          -2.92124700     -1.05682600     -0.23749000
C          -3.78263200     -2.17975600     -0.11292600
C          -3.25693000     -3.40431000      0.29640400
C          -1.89889600     -3.54410300      0.56925600
H          -0.89184900     -0.36064100     -0.16140100
H          -3.91571000     -4.25916900      0.40300100
H          -1.49916600     -4.49727400      0.89802400
C          -5.49012400     -2.06379900     -1.83587700
C          -6.12203200     -2.74515900      0.39715600
C          -6.91747900     -1.57785200     -2.05610200
H          -5.38812600     -3.10283000     -2.18987200
H          -4.79172600     -1.44076600     -2.40218600
C          -7.52484000     -2.21637500      0.11808000
H          -6.09389500     -3.81871900      0.14753900
H          -5.87673500     -2.63084200      1.45705900
H          -7.21288500     -1.71674900     -3.09944800
H          -6.98293900     -0.50602300     -1.80858700
H          -8.27119500     -2.80815600      0.65446700
H          -7.59541400     -1.16767600      0.44686900
N          -5.16378900     -1.97265200     -0.39877800
O          -7.84471200     -2.31611100     -1.26684500
N          -3.56696800      0.14529600     -0.54861800
C          -3.11050400      1.43038300     -0.53347500
N          -1.79081100      1.66738800     -0.54994500
C          -4.05044200      2.48830700     -0.53349200
C          -1.40559500      2.94335500     -0.53889000
C          -3.53368200      3.76426400     -0.50963300
H          -5.11801800      2.30382600     -0.52663900
N          -2.21281600      4.02515300     -0.50262000
H          -4.18941400      4.63054400     -0.48797300
N          -0.05880100      3.26218200     -0.58493500
C           1.04223300      2.45152200     -0.81813800
C           2.19258000      3.06392200     -1.35606000
N           0.99869900      1.14813900     -0.50939500
C           3.28628000      2.25630000     -1.61285500
H           2.20673200      4.12521200     -1.57437500
C           2.06392100      0.39036400     -0.81642000
C           3.23512100      0.88195800     -1.37608800
H           1.97209800     -0.66635900     -0.59746700
H           4.06295200      0.22640900     -1.60568400
Cl          4.74764200      2.96757500     -2.27163000
C           0.35354500     -2.59488300      0.68616400
C           1.52369400     -2.75523100      0.96400600
C           2.95503200     -2.97448800      1.25918300
C           3.11439500     -3.83376400      2.52866200
H           2.63786600     -4.80310400      2.36135400
H           4.18029500     -3.98328100      2.72340600
H           2.65380700     -3.35082000      3.39354800
O           3.58816800     -3.68691100      0.21727800
C           3.63072500     -1.61413300      1.48311500
S           2.94447200     -0.42353800      2.56215000
C           5.14383700      0.01427800      1.36404400
C           4.29847000      0.61213300      2.24925400
H           6.05895000      0.44421900      0.97635100
H           4.38173800      1.58560400      2.71123300
N           4.76038100     -1.24405900      0.94107300
H           3.38712900     -3.22793900     -0.64004400
O           3.32765000     -2.31239300     -2.07786100
C           2.93748300     -2.97031700     -3.28017500
H           3.12230000     -2.33626300     -4.15646300
H           3.46339800     -3.92459800     -3.41528200
H           1.86490100     -3.16782000     -3.21099400
H           4.30952400     -2.16402200     -2.07789100
H           5.59271600     -1.82922500     -0.54984100
O           5.91013600     -2.01307500     -1.47272300
C           6.52934500     -3.30147100     -1.46372200
H           6.75202900     -3.56906100     -2.49991200
H           7.46925800     -3.28288400     -0.89692900
H           5.86762000     -4.05982000     -1.02909100
H           0.11584300      0.92741800      1.15471800
O          -0.11265800      0.96883300      2.11226700
C           0.45091600      2.16608700      2.63732500
H           1.52858300      2.21977000      2.43704800
H          -0.02662900      3.06212100      2.22050500
H           0.29657900      2.15572100      3.71923300
H           0.10478000      4.27116700     -0.66335700
O          -0.37600100      6.09942100     -0.49006400
C          -0.17540000      6.40963400      0.88694700
H          -0.26055200      5.51847200      1.52534300
H           0.83414500      6.81578400      0.99160200
H          -0.89347000      7.16120700      1.24180900
H          -1.23955000      5.61943500     -0.54872500
H          -1.89375500      0.86819200      2.33940100
O          -2.85070900      0.95691000      2.54920200
C          -3.05651100      2.30980000      2.91044000
H          -2.72389700      3.01011200      2.13102200
H          -4.13138400      2.45969200      3.05712500
H          -2.54526700      2.57891500      3.84913100
H          -4.57617200      0.03534900     -0.46522600
