%chk=/home/zxwei/cal/chk/trans.chk
%mem=16GB
%nprocshared=16
#opt=(ts,calcfc,noeigen,maxstep=10)	scrf=(solvent=tetrahydrofuran)	nosymm	UM062X	def2SVP	guess=(mix,always)	fre

Title Card Required

0 1
C          -2.95134300      0.60211900     -0.33469600
C          -1.58802900      0.39185100     -0.05919900
C          -0.70413600      1.46621100      0.00536700
C          -1.17572500      2.79045600     -0.18754900
C          -2.53967900      2.98956500     -0.42536200
C          -3.42054600      1.91501000     -0.50575400
H          -1.23798300     -0.61211400      0.14741100
H          -2.91561500      3.99628400     -0.56798800
H          -4.47254400      2.08617500     -0.70702400
C           0.69991100      3.97195300     -1.20783700
C          -0.75529000      5.15893800      0.31088100
C           1.83079500      4.91415100     -0.81555100
H           0.17599300      4.36688900     -2.09348400
H           1.10383600      2.98954300     -1.46172800
C           0.42355500      6.05647300      0.67351600
H          -1.32742400      5.63158800     -0.50504800
H          -1.41694400      5.04389700      1.17444200
H           2.49389900      5.09038000     -1.66661900
H           2.41558300      4.46608000      0.00367100
H           0.07657600      7.06488500      0.91367700
H           0.94454200      5.63843300      1.54890400
N          -0.23895400      3.84458700     -0.07546500
O           1.32988900      6.18675100     -0.41766700
N           0.64309300      1.31830000      0.36454500
H           1.04195100      2.12271800      0.84004400
C           1.54727800      0.36216800     -0.00525200
N           2.76048800      0.49424300      0.55577000
C           1.27580000     -0.67506700     -0.92639800
C           3.68920600     -0.41240900      0.21422000
C           2.32067100     -1.53828200     -1.18955200
H           0.32200200     -0.77686600     -1.42333300
N           3.54004400     -1.44294300     -0.62903100
H           2.18665000     -2.35657100     -1.89353400
N           4.90694600     -0.20686700      0.83185800
H           4.92926000      0.59310100      1.45243300
C           6.11367000     -0.88875800      0.76054400
C           6.32864100     -2.03098400     -0.03178400
N           7.06876200     -0.34164000      1.53530400
C           7.59573700     -2.59175200      0.01261300
H           5.53085100     -2.43372200     -0.63667100
C           8.27313600     -0.91947700      1.54362400
C           8.60776800     -2.05139400      0.80351100
H           9.02069100     -0.45153100      2.18034500
H           9.59951000     -2.48383800      0.84340100
Cl          7.92495000     -4.02059700     -0.95608600
C          -3.84653300     -0.50647100     -0.40138100
C          -4.60964400     -1.44739200     -0.45701400
C          -5.54001200     -2.59420200     -0.50985000
C          -4.95890100     -3.79306100      0.25295800
H          -5.67553400     -4.61848300      0.22977200
H          -4.03002300     -4.10712800     -0.23010800
H          -4.74042700     -3.53037200      1.29185200
O          -5.75914200     -3.00723300     -1.85602900
H          -6.56673700     -2.53927100     -2.14684200
C          -6.87791900     -2.14548200      0.07338400
S          -7.16023800     -1.83257600      1.76891300
C          -8.98993600     -1.47531500      0.03045700
C          -8.78716000     -1.36541600      1.37418100
H          -9.91723000     -1.25000700     -0.48195900
H          -9.48117400     -1.05305200      2.14164600
N          -7.90236800     -1.91459000     -0.69745100
