%chk=/home/zxwei/cal/chk/trans.chk
%mem=16GB
%nprocshared=16
#opt=(ts,calcfc,noeigen,maxstep=10)	scrf=(solvent=tetrahydrofuran)	nosymm	UM062X	def2SVP	guess=(mix,always)	fre

Title Card Required

0 1
C          -0.41910900      1.03827500     -0.57327100
C           0.09906600      3.37207100     -1.38727400
C           1.43850900      2.76655500     -1.79868700
C           1.90307900      1.73411400     -0.77175900
C          -1.56286600      0.42184900     -0.08113800
C          -2.57498100      1.40760300     -0.20043800
H          -0.38481800      3.89559800     -2.21459700
H           1.35199500      2.28353900     -2.77788500
H           2.85027300      1.28839800     -1.06422000
H          -1.66515800     -0.57070600      0.32382400
H           0.22672600      4.07959700     -0.56039300
H           2.18247100      3.56362600     -1.88186300
H           2.03149000      2.19329700      0.21650900
N          -2.09730600      2.55564700     -0.71327200
C          -3.94252500      1.27242900      0.15733600
C          -5.10460400      1.12496000      0.46885800
C          -6.51576300      0.96118200      0.85751400
C          -7.36662300      2.12206900      0.32068600
H          -7.34415600      2.13979800     -0.77103100
H          -8.39858300      1.99168300      0.65744300
H          -6.97734100      3.06991000      0.70378700
O          -6.63504000      0.85838800      2.28405600
H          -6.09277500      1.56496500      2.67165200
C          -7.01859200     -0.36760500      0.31970100
S          -7.01557000     -1.79501800      1.33692100
C          -7.75319700     -1.89105500     -1.10069900
C          -7.60093900     -2.70788300     -0.01755600
H          -8.11298700     -2.20615900     -2.07311700
H          -7.81150100     -3.76499300      0.06439000
N          -7.41883000     -0.56671800     -0.90257800
C           1.31287700     -0.68010200     -0.70148600
N           2.60884900     -0.89670300     -0.42840500
C           0.44493300     -1.74403700     -1.00929500
C           3.03858200     -2.16428500     -0.45208000
C           1.00982000     -3.01176700     -0.99341600
H          -0.58649600     -1.59468900     -1.29015200
N           2.29268100     -3.26140100     -0.71111300
H           0.39625300     -3.87843900     -1.23174800
N           0.91077200      0.64626200     -0.68781500
N           4.35682500     -2.43864500     -0.19199700
H           4.56848600     -3.42297800     -0.29100900
C           5.44853000     -1.60404500      0.09519000
C           5.30440400     -0.24655700      0.46616300
C           6.72363600     -2.19075900      0.03592600
C           6.46616200      0.44251500      0.74606400
H           4.33232600      0.21693500      0.52274400
C           7.88664300     -1.46335600      0.33201500
H           6.81335900     -3.23570600     -0.24616800
C           7.72906500     -0.13820300      0.68436400
H           8.86555000     -1.92634000      0.27822600
C           7.96162000      1.93926900      1.47029800
H           8.35264700      2.84908200      1.01215000
H           8.03436900      1.97803600      2.56503900
O           8.69060700      0.80549500      0.98030600
O           6.58551000      1.76828600      1.09255800
N          -0.78984700      2.30285000     -0.94507300
