%chk=/home/zxwei/cal/chk/trans.chk
%mem=16GB
%nprocshared=16
#opt=(ts,calcfc,noeigen,maxstep=10)	scrf=(solvent=tetrahydrofuran)	nosymm	UM062X	def2SVP	guess=(mix,always)	fre

Title Card Required

0 1
C          -0.68326900      1.41376600     -0.43272000
C          -0.28162100      3.89252300     -0.16959700
C           1.13789700      3.55480300     -0.61813200
C           1.58180800      2.21000900     -0.04261900
C          -1.81550800      0.61045400     -0.38027400
C          -2.88969300      1.52229200     -0.22171100
H          -0.72154900      4.69039200     -0.77178600
H           1.18983600      3.51040400     -1.71128100
H           2.58699500      1.95565000     -0.36875400
H          -1.87352900     -0.46387900     -0.42423400
H          -0.29643800      4.20647800      0.88008100
H           1.81798000      4.34195000     -0.28109500
H           1.57294600      2.22960900      1.05449500
N          -2.45990900      2.79540900     -0.16343500
C          -4.27057600      1.20207800     -0.12935000
C          -5.44040700      0.89347300     -0.05641500
C          -6.86547900      0.51247400      0.03851900
C          -7.59756100      1.40651800      1.04851300
H          -7.12672000      1.35415500      2.03415800
H          -7.56314500      2.44204800      0.70031200
H          -8.63989200      1.08563100      1.12579200
O          -7.51564600      0.66583700     -1.21966200
H          -7.44754700     -0.20459600     -1.65928900
C          -6.92910500     -0.96188700      0.43090500
S          -6.56644900     -1.57639900      2.02541600
C          -7.17286800     -3.14026100      0.10613600
C          -6.83890300     -3.18521700      1.42733300
H          -7.39874700     -4.00146300     -0.51073300
H          -6.74657600     -4.04584400      2.07461800
N          -7.21820600     -1.87758700     -0.44948200
C           1.18848700     -0.03662100     -1.03371000
N           2.46683100     -0.30139400     -0.72058000
C           0.44256700     -0.90663500     -1.85023500
C           2.99824400     -1.42778900     -1.21057800
C           1.10487800     -2.04486500     -2.28856100
H          -0.56715700     -0.69144200     -2.16502700
N           2.37192300     -2.34301600     -1.98388900
H           0.58878700     -2.75496500     -2.93185500
N           0.67950000      1.14854300     -0.52651300
N           4.30397600     -1.74162400     -0.93219700
H           4.59395000     -2.59488200     -1.39183000
C           5.29302500     -1.07942900     -0.18724000
C           6.60434000     -1.60690600     -0.30512800
C           5.04615000      0.02048700      0.64651500
C           7.60073200     -0.99425300      0.41989800
H           6.81458800     -2.45866400     -0.94348300
C           6.08849500      0.62659900      1.37314500
H           4.04112200      0.40278400      0.72937800
C           7.35648900      0.10360100      1.24248500
H           5.89049100      1.47514600      2.01883000
C           9.56028200     -0.27290000      1.21990700
H          10.22562900     -0.69702500      1.97362600
H          10.10679200      0.37117900      0.51906600
O           8.52754700      0.48445200      1.86427300
O           8.92860100     -1.33850300      0.48898700
N          -1.11826800      2.70560500     -0.30803900
