%chk=/home/zxwei/cal/chk/trans.chk
%mem=16GB
%nprocshared=16
#opt=(ts,calcfc,noeigen,maxstep=10)	scrf=(solvent=tetrahydrofuran)	nosymm	UM062X	def2SVP	guess=(mix,always)	fre

Title Card Required

0 1
C          -0.60043800      1.41967600     -0.40357300
C          -0.18577400      3.90534700     -0.24560700
C           1.22137800      3.54577800     -0.71582500
C           1.67581300      2.22207000     -0.10083100
C          -1.73295700      0.62291800     -0.29090900
C          -2.79991600      1.54432800     -0.14050600
H          -0.63827500      4.68158500     -0.86641100
H           1.24646100      3.46040100     -1.80749300
H           2.67180600      1.95162100     -0.44198300
H          -1.79504100     -0.45212400     -0.29107100
H          -0.17401600      4.25818600      0.79162100
H           1.91147100      4.34267600     -0.42529000
H           1.69454400      2.28339100      0.99457400
N          -2.36581400      2.81737400     -0.14363300
C          -4.17863800      1.23419600      0.00074200
C          -5.34662500      0.93619100      0.12309900
C          -6.76581100      0.57385700      0.23717800
C          -7.49557900      1.49245700      1.22970000
H          -7.39520300      2.53240500      0.90831400
H          -8.55486300      1.22093800      1.25592800
H          -7.06906300      1.37458100      2.22797100
O          -7.44140900      0.73235700     -1.01815800
H          -6.87731300      0.34358600     -1.70839700
C          -6.88792800     -0.87535600      0.69642300
S          -8.00264200     -1.95375300     -0.12069300
C          -6.63463700     -2.71572100      1.89015800
C          -7.55850100     -3.19582800      1.00714800
H          -6.18959800     -3.28627600      2.69702100
H          -7.98976400     -4.18560400      0.95377200
N          -6.25953800     -1.39955000      1.70786300
C           1.25124300     -0.05949800     -0.99518100
N           2.53536700     -0.31849300     -0.70188800
C           0.48291200     -0.95540500     -1.76110400
C           3.05040600     -1.46541400     -1.16101700
C           1.13031000     -2.11216000     -2.17250600
H          -0.53310600     -0.74691700     -2.05975200
N           2.40271300     -2.40508000     -1.88596200
H           0.59671900     -2.84287700     -2.77727400
N           0.75859000      1.14640000     -0.52134600
N           4.36031700     -1.77603700     -0.90001100
H           4.63617300     -2.64692900     -1.33450400
C           5.36721000     -1.09603900     -0.19604100
C           6.67052700     -1.64326800     -0.31155300
C           5.14376700      0.03510900      0.60180700
C           7.68215500     -1.02152900      0.38403200
H           6.86335600     -2.51668200     -0.92569900
C           6.20222000      0.65266300      1.29485900
H           4.14353000      0.42917800      0.68775100
C           7.46102100      0.10606000      1.17218500
H           6.02391300      1.53032200      1.90647600
C           9.59778600     -0.50622700      1.41642500
H           9.78276200     -1.10316300      2.31869700
H          10.51987900     -0.06551600      1.03394000
O           8.65622900      0.53380900      1.71218100
O           9.01652200     -1.34616900      0.40383500
N          -1.02913500      2.71710900     -0.31853500
