%chk=/home/zxwei/cal/chk/trans.chk
%mem=16GB
%nprocshared=16
#opt=(ts,calcfc,noeigen,maxstep=10)	scrf=(solvent=tetrahydrofuran)	nosymm	UM062X	def2SVP	guess=(mix,always)	fre

Title Card Required

0 1
C          -0.60332300      0.48835100     -0.08170300
C          -0.49964700      2.82632400     -0.90146900
C           0.73463000      2.89421400     -0.00293800
C           1.59470500      1.64078200     -0.15891600
C          -1.60218500     -0.34465300      0.40558500
C          -2.79794500      0.39910200      0.22975900
H          -0.22120900      2.76471200     -1.95982800
H           1.34612500      3.76419200     -0.25755100
H           2.15806200      1.68029600     -1.09625400
H          -1.50109100     -1.32121000      0.84902300
H          -1.16782000      3.67623300     -0.76028700
H           0.40670300      3.00933500      1.03573400
H           2.31870900      1.57356600      0.65594000
N          -2.55901400      1.61199700     -0.30574100
C          -4.11643400     -0.01014800      0.56306300
C          -5.23365400     -0.37880600      0.85474300
C          -6.59783800     -0.82997100      1.20153200
C          -6.71897100     -2.35093100      1.03387200
H          -6.46449600     -2.65624500      0.01508700
H          -6.03189900     -2.84283500      1.72721800
H          -7.74326600     -2.65872000      1.26077500
O          -6.90374800     -0.52337700      2.55855000
H          -7.34366300      0.34937500      2.53918200
C          -7.58406200     -0.07924900      0.30960500
S          -7.81012200     -0.39083400     -1.39435900
C          -9.08702800      1.46609800     -0.20328300
C          -8.96320900      0.90871400     -1.44146500
H          -9.74176500      2.29173700      0.04741000
H          -9.47358000      1.17099300     -2.35741200
N          -8.30018800      0.90185000      0.78036600
C           1.44397500     -0.80563800     -0.35924500
N           2.78211300     -0.73956800     -0.26373800
C           0.79278100     -2.01746400     -0.66011500
C           3.46660100     -1.87659800     -0.44046100
C           1.61487000     -3.12323500     -0.81968600
H          -0.27456000     -2.09151400     -0.79900000
N           2.94726900     -3.09547600     -0.70624100
H           1.17660800     -4.09041300     -1.05841000
N           0.78260200      0.39642600     -0.17273900
N           4.83567400     -1.86898200     -0.35130500
H           5.22641100     -2.79336700     -0.47900600
C           5.76052400     -0.84225600     -0.10521000
C           7.11391600     -1.25190000      0.00847400
C           5.42125300      0.51311300      0.01123200
C           8.05514900     -0.27336400      0.23267400
H           7.39728300     -2.29572300     -0.07670500
C           6.40785300      1.48925400      0.24671100
H           4.38816700      0.80548700     -0.08586700
C           7.71696300      1.07315100      0.35221500
H           6.13743500      2.53528200      0.34115600
C           9.94520100      0.90679700      0.41604700
H          10.65350400      1.00507800      1.24019100
H          10.42328700      1.11096900     -0.55067600
O           8.85204800      1.81301800      0.61295300
O           9.40912400     -0.42780700      0.40613100
N          -1.22433500      1.62822600     -0.50748500
