%chk=/home/zxwei/cal/chk/trans.chk
%mem=16GB
%nprocshared=16
#opt=(ts,calcfc,noeigen,maxstep=10)	scrf=(solvent=tetrahydrofuran)	nosymm	UM062X	def2SVP	guess=(mix,always)	fre

Title Card Required

0 1
C           3.42750000      1.33093800      0.18165300
C           2.06396500      1.02470300      0.34326700
C           1.09835400      2.02444400      0.25792600
C           1.48475500      3.37054500      0.02950900
C           2.84606100      3.66824200     -0.08826500
C           3.81056300      2.66638800     -0.02190100
H           1.77456500      0.00744100      0.57601200
H           3.15660500      4.69326200     -0.25593000
H           4.86081800      2.91205200     -0.13625400
C           0.82677300      5.71929600      0.32810300
C          -0.34251200      4.32834800     -1.26298800
C          -0.45026000      6.53843800      0.48751700
H           1.45639500      6.18793100     -0.44677200
H           1.38620700      5.71059600      1.26821800
C          -1.57804800      5.19878500     -1.07259500
H           0.25455400      4.70881800     -2.10782800
H          -0.64110700      3.30288800     -1.49146600
H          -0.20956100      7.58410800      0.69623800
H          -1.04281900      6.13342700      1.32263300
H          -2.14335800      5.26895300     -2.00565200
H          -2.22456900      4.75613500     -0.29800100
N           0.46030400      4.34610500     -0.02385000
O          -1.22290700      6.52923000     -0.70904900
N          -0.26294200      1.78742600      0.49131500
H          -0.76969900      2.58336600      0.86808800
C          -1.04324600      0.72435800      0.13197800
N          -2.30747700      0.78333800      0.58184300
C          -0.60367600     -0.34898400     -0.67619500
C          -3.11987800     -0.23037200      0.24482600
C          -1.54182700     -1.32478400     -0.94790600
H           0.39415800     -0.39734100     -1.08727900
N          -2.80837200     -1.30345400     -0.49462800
H          -1.27607100     -2.17752600     -1.56867900
N          -4.39939900     -0.09493000      0.74585300
H          -4.54468800      0.74342500      1.29510300
C          -5.53406500     -0.88525000      0.62771300
C          -5.58099800     -2.09625600     -0.08636600
N          -6.59784100     -0.37087900      1.27240600
C          -6.79685100     -2.76215500     -0.10660600
H          -4.70075700     -2.46955100     -0.58687500
C          -7.74650200     -1.05105400      1.22356900
C          -7.91818500     -2.25805600      0.54930000
H          -8.58503900     -0.60684800      1.75534400
H          -8.87086000     -2.77233800      0.53825600
Cl         -6.91779200     -4.28009300     -0.98393200
C           4.39769600      0.28718500      0.24684000
C           5.20292600     -0.61827600      0.29597800
C           6.16363500     -1.74056500      0.32874600
C           7.20413300     -1.59428100     -0.79069100
H           7.77883000     -0.67903400     -0.62645800
H           7.87978400     -2.45372700     -0.77086200
H           6.72225400     -1.53290100     -1.77049400
O           6.86766200     -1.77400900      1.56679300
H           6.37010400     -2.39310900      2.13674200
C           5.36704100     -3.03694800      0.19728500
S           4.55886600     -3.55292500     -1.26319300
C           4.40212200     -4.90767100      0.89036600
C           3.96149200     -4.93800900     -0.39944900
H           4.17906100     -5.65248500      1.64447400
H           3.34224600     -5.67735200     -0.88741200
N           5.19425800     -3.82583600      1.21922700
