%chk=/home/zxwei/cal/chk/trans.chk
%mem=16GB
%nprocshared=16
#opt=(ts,calcfc,noeigen,maxstep=10)	scrf=(solvent=tetrahydrofuran)	nosymm	UM062X	def2SVP	guess=(mix,always)	fre

Title Card Required

0 1
C          -0.39191000     -0.57363100      0.61091300
C          -0.28467800     -3.00915000     -0.05368000
C          -1.76296700     -3.01843300      0.32721800
C          -2.43274200     -1.70348200     -0.07137600
C           0.56132000      0.42927800      0.76799200
C           1.79936100     -0.21782500      0.55349200
H          -0.15438700     -3.14135700     -1.13326600
H          -2.25770200     -3.85193000     -0.17860600
H          -2.36617400     -1.54056200     -1.15420600
H           0.40007200      1.47267900      0.97899300
H           0.27453700     -3.79470600      0.45928200
H          -1.87477600     -3.16514000      1.40667700
H          -3.48300600     -1.69526600      0.20851000
N           1.62620500     -1.52229500      0.27224700
C           3.10520000      0.33524900      0.59952000
C           4.23369100      0.77353000      0.63442400
C           5.61986500      1.28346000      0.65159600
C           6.29951700      0.91263600      1.97479100
H           7.32806100      1.28591100      1.97257300
H           5.75245500      1.38979500      2.79129100
H           6.28404500     -0.17068000      2.11757300
O           5.64549900      2.69923300      0.55590600
C           6.33889900      0.65032100     -0.54923500
S           7.51937500     -0.62629300     -0.40412000
C           6.85700500      0.28238200     -2.68499800
C           7.68933100     -0.64386000     -2.12712300
H           6.75647100      0.48231600     -3.74442000
H           8.37238800     -1.32178500     -2.61879500
N           6.09948500      1.00133400     -1.78821200
C          -2.53613600      0.38771800      1.27467400
N          -3.81893200      0.46515200      0.89111200
C          -2.02136900      1.22512400      2.28012100
C          -4.58767700      1.37632800      1.50002200
C          -2.91718100      2.13320900      2.82910200
H          -1.00956700      1.14589400      2.64808100
N          -4.19712900      2.24349600      2.46106700
H          -2.58790100      2.80479900      3.61953600
N          -1.77958800     -0.58648100      0.63759100
N          -5.90964000      1.48905400      1.15565300
H          -6.39090400      2.17804000      1.71886100
C          -6.69904800      0.79543200      0.22329200
C          -8.09638000      1.01832600      0.31622100
C          -6.18216200     -0.04716300     -0.77112800
C          -8.90150500      0.38033600     -0.59970500
H          -8.51564900      1.66355300      1.08097500
C          -7.03373200     -0.69226800     -1.68783000
H          -5.11573900     -0.19579200     -0.83429700
C          -8.38822400     -0.46197900     -1.58381800
H          -6.62840600     -1.34708200     -2.45141500
C         -10.59223700     -0.27041200     -1.91154300
H         -11.40733100     -0.97228500     -1.72761500
H         -10.86252700      0.46547600     -2.67959400
O          -9.42372900     -0.99094900     -2.32551600
O         -10.27147500      0.41664400     -0.68927500
N           0.29027100     -1.72213600      0.32416900
H           5.10606700      2.96644000     -0.23005500
O           5.45574800     -2.32277100      1.76479200
H           4.99817000     -2.44626500      0.89997200
C           4.44278100     -2.31118900      2.75696500
H           3.84271100     -3.23449100      2.74790500
H           4.93211400     -2.23389100      3.73339200
H           3.75885000     -1.45790000      2.64641400
H           4.90681000      2.37791600     -2.07036300
O           4.46149700      3.23621300     -1.85915400
C           5.28939300      4.26473300     -2.40448200
H           6.32276000      4.18718200     -2.04086700
H           5.29702700      4.23264500     -3.50162300
H           4.87639000      5.22494100     -2.08531400
H           3.06490900     -2.53737400     -0.21540800
O           3.95430900     -2.87003700     -0.48719000
C           4.28459300     -2.21780700     -1.71124900
H           3.61960700     -2.53627900     -2.52580700
H           4.23407300     -1.12672600     -1.61974700
H           5.30900100     -2.49609400     -1.96968100
