%chk=/home/zxwei/cal/chk/trans.chk
%mem=16GB
%nprocshared=16
#opt=(ts,calcfc,noeigen,maxstep=10)	scrf=(solvent=tetrahydrofuran)	nosymm	UM062X	def2SVP	guess=(mix,always)	fre

Title Card Required

0 1
C          -0.41660700      0.04639500      0.93910700
C          -0.34427800     -2.04068700      2.35822000
C           1.12057900     -1.66500700      2.56536100
C           1.71339800     -1.07553700      1.28572100
C          -1.43748800      0.75065000      0.31309300
C          -2.62404400      0.08645300      0.71487300
H          -0.86290600     -2.20219800      3.30571100
H           1.21392700     -0.93186200      3.37372000
H           2.75322600     -0.79295700      1.42836900
H          -1.35565600      1.59590100     -0.34917300
H          -0.43362000     -2.95303900      1.75799300
H           1.68282700     -2.55718300      2.85437900
H           1.66490800     -1.79794400      0.46124700
N          -2.36298700     -0.96050800      1.51807200
C          -3.95550000      0.42206000      0.35110800
C          -5.08321400      0.72395500      0.02529400
C          -6.45550700      1.08738500     -0.38598000
C          -6.42256500      1.92687500     -1.67138400
H          -5.91207100      1.39284800     -2.47769800
H          -7.44641200      2.15635000     -1.97863700
H          -5.88647400      2.85911600     -1.47561700
O          -7.09750100      1.86469100      0.62024900
H          -7.61328100      1.22899800      1.15500700
C          -7.25281000     -0.20162600     -0.57237700
S          -7.01240500     -1.33143000     -1.88252100
C          -8.72406100     -1.77279600     -0.04562400
C          -8.23977700     -2.34517600     -1.18439100
H          -9.49846500     -2.19300100      0.58435800
H          -8.52728500     -3.27706500     -1.65035100
N          -8.15697900     -0.56099400      0.29374500
C           1.64460300      1.30569300      0.57295900
N           2.93377800      1.15002900      0.23343300
C           1.04629700      2.57911700      0.59856200
C           3.62288700      2.25216500     -0.08659300
C           1.86546100      3.64148600      0.24272500
H           0.02908400      2.74089700      0.92146000
N           3.14833800      3.51767100     -0.11317500
H           1.46908600      4.65498100      0.25362600
N           0.97108800      0.14512100      0.91952700
N           4.94570000      2.14885300     -0.43318300
H           5.36614700      3.05262700     -0.60608200
C           5.80629500      1.04451600     -0.53473600
C           5.34951900     -0.29430000     -0.51566100
C           7.17382100      1.32421000     -0.69543400
C           6.30979800     -1.27496000     -0.65364600
H           4.30291700     -0.52517000     -0.39735900
C           8.12566200      0.30287600     -0.83748400
H           7.50489300      2.35844000     -0.71163200
C           7.66399900     -0.99757800     -0.81140900
H           9.17872300      0.53158100     -0.95687600
C           7.38244300     -3.20377400     -1.01537800
H           7.62539200     -4.03119400     -0.34685700
H           7.32953200     -3.53486000     -2.06078700
O           8.37551100     -2.17695800     -0.88640900
O           6.11818300     -2.63697400     -0.63330000
N          -1.01736900     -0.95628600      1.65153300
